19
Iteration:  3570charge 0 multiplicity 1
 C         0.159291        -0.493706        -0.665220
 C         1.476816         0.210675        -0.268268
 C         1.876061         0.593977         1.129485
 C         3.319883         0.887838         0.737437
 O         4.362434         0.189796         1.530294
 C         3.553355         2.291513         0.226555
 O         2.391395         2.527646        -0.589619
 C         2.028615         1.286691        -1.149544
 C         2.908140         0.156909        -0.721416
 H         0.171997        -1.486958        -0.341192
 H        -0.753226         0.000440        -0.091168
 H        -0.274559        -0.547714        -1.709545
 H         1.253995         1.438669         1.579147
 H         1.835163        -0.225648         1.883385
 H         3.858511        -0.507634         2.081782
 H         3.643612         3.077580         0.989046
 H         4.444762         2.607003        -0.425210
 H         1.680979         1.435178        -2.144079
 H         3.594312        -0.394627        -1.400077
