19
Iteration:    10charge 0 multiplicity 1
 C        -0.106976        -0.308558        -0.113113
 C         1.238372         0.514552        -0.088476
 C         1.957291         0.975419         1.215536
 C         3.340132         0.842795         0.564921
 O         4.259011         0.201928         1.390184
 C         3.757208         2.097413        -0.071919
 O         2.767809         2.327821        -1.039865
 C         2.030946         1.076054        -1.176356
 C         2.689691        -0.072054        -0.418279
 H        -0.229435        -1.056080         0.735612
 H        -0.940359         0.382712        -0.000004
 H        -0.209066        -0.799135        -1.111232
 H         1.617842         1.934204         1.857996
 H         2.012112         0.039707         1.851189
 H         4.769318         0.791199         1.949982
 H         3.701933         2.794358         0.747390
 H         4.743164         2.144542        -0.610695
 H         1.656425         0.831230        -2.089820
 H         2.951425        -0.971724        -0.964511
