19
Iteration:  3216
 C         0.224016        -0.578632        -0.413019
 C         1.420258         0.300266        -0.288484
 C         1.895552         0.591459         1.184853
 C         3.276936         0.781784         0.663751
 O         4.159691         0.079726         1.468420
 C         3.492094         2.320664         0.358514
 O         2.552128         2.591039        -0.745723
 C         2.078553         1.359250        -1.256692
 C         2.849006         0.196230        -0.717366
 H         0.420340        -1.546812         0.134469
 H        -0.737859        -0.158176        -0.105502
 H         0.079241        -0.797693        -1.518479
 H         1.500816         1.312322         1.841973
 H         1.899364        -0.377172         1.770314
 H         5.071396         0.543830         1.328168
 H         3.314795         3.167961         1.129828
 H         4.517338         2.576745         0.044443
 H         1.648917         1.425060        -2.279715
 H         3.429791        -0.451230        -1.353357
