19
Iteration:  2462
 C         0.207684        -0.630683        -0.393280
 C         1.366822         0.346670        -0.263127
 C         1.873961         0.604842         1.242838
 C         3.280326         0.811813         0.643220
 O         4.349691         0.120596         1.368107
 C         3.465318         2.342275         0.410636
 O         2.618235         2.598835        -0.812408
 C         1.998790         1.359562        -1.242839
 C         2.816594         0.224105        -0.720160
 H         0.436518        -1.517721         0.450235
 H        -0.786354        -0.179863        -0.104964
 H         0.159107        -1.193888        -1.458897
 H         1.482416         1.581251         1.705463
 H         1.508859        -0.277579         1.829378
 H         4.055261        -0.764228         1.616373
 H         3.034024         2.852641         1.315402
 H         4.484317         2.623612         0.193955
 H         1.975027         1.258171        -2.310574
 H         3.433699        -0.503449        -1.329959
