19
Iteration:  1701
 C         0.120270        -0.492365        -0.563435
 C         1.401543         0.286812        -0.272076
 C         1.818853         0.641110         1.180847
 C         3.331421         0.778182         0.684038
 O         4.323876         0.173630         1.563768
 C         3.578853         2.229395         0.153538
 O         2.435555         2.528032        -0.593149
 C         2.063306         1.246221        -1.169453
 C         2.905516         0.161016        -0.728376
 H        -0.023706        -1.359760         0.059455
 H        -0.680898         0.264882        -0.387408
 H        -0.100143        -0.769821        -1.540632
 H         1.500745         1.737354         1.371407
 H         1.573849        -0.247907         1.782227
 H         4.952790         0.872397         1.742684
 H         3.637928         3.031924         0.989810
 H         4.502866         2.337146        -0.501069
 H         1.754214         1.203380        -2.203948
 H         3.469175        -0.427530        -1.318745
