19
Iteration:   186
 C         0.094186        -0.192597        -0.119154
 C         1.367608         0.381100         0.012017
 C         1.861653         0.974524         1.233979
 C         3.245029         0.829175         0.617868
 O         4.238474         0.241144         1.295374
 C         3.553941         2.154454         0.100630
 O         2.791418         2.331648        -1.063886
 C         2.110103         1.070729        -1.213454
 C         2.725878        -0.114846        -0.521308
 H        -0.043020        -0.804826         0.838564
 H        -0.732083         0.564126        -0.000510
 H         0.039820        -0.798882        -1.051437
 H         1.424995         1.982069         1.589143
 H         1.695502         0.380137         2.162481
 H         4.232950        -0.684368         1.042340
 H         3.327771         2.915859         0.842824
 H         4.655573         2.133441        -0.246442
 H         1.671149         1.026426        -2.299777
 H         3.135492        -1.031166        -0.987566
