19
Iteration:  3410
 C         0.242711        -0.540276        -0.792877
 C         1.398009         0.233437        -0.173071
 C         1.797936         0.555076         1.212321
 C         3.267028         0.757550         0.735256
 O         4.377097         0.355665         1.427452
 C         3.602150         2.150645         0.185136
 O         2.430039         2.573713        -0.562284
 C         1.984502         1.388853        -1.038451
 C         2.868446         0.156546        -0.680735
 H         0.285126        -1.714895        -0.684754
 H        -0.677871        -0.130485        -0.392878
 H         0.279414        -0.375150        -1.854985
 H         1.388429         1.483697         1.735853
 H         1.877676        -0.269301         1.971858
 H         3.987011        -0.146817         2.208529
 H         3.759247         3.091525         0.817430
 H         4.537460         2.054322        -0.557113
 H         1.793159         1.380727        -2.095018
 H         3.302765        -0.576141        -1.417589
