19
Iteration:  3697
 C         0.020842        -0.482082        -0.634350
 C         1.414243         0.176401        -0.381648
 C         1.846870         0.615716         1.114324
 C         3.311272         0.791691         0.680533
 O         4.379972         0.333697         1.529259
 C         3.571479         2.228066         0.293621
 O         2.405054         2.597120        -0.507066
 C         2.097205         1.229999        -1.233864
 C         2.981299         0.155791        -0.644386
 H        -0.012306        -1.495547        -0.049206
 H        -0.764455         0.082041        -0.236824
 H        -0.172980        -0.797939        -1.695069
 H         1.327677         1.451204         1.425687
 H         1.630118        -0.264559         1.689184
 H         4.254526        -0.430334         2.064525
 H         3.621260         3.111866         1.002311
 H         4.424329         2.152666        -0.449108
 H         1.969660         1.381066        -2.280184
 H         3.623340        -0.579691        -1.213567
