19
Iteration:  4283charge 0 multiplicity 1
 C         0.067826        -0.442057        -0.867438
 C         1.406758         0.194773        -0.208971
 C         1.881706         0.542886         1.170783
 C         3.305925         0.773983         0.639302
 O         4.511835         0.356874         1.569971
 C         3.559060         2.246067         0.231669
 O         2.396216         2.563414        -0.525910
 C         2.032921         1.259403        -1.118168
 C         2.843408         0.117667        -0.624183
 H        -0.030764        -1.512127        -0.758785
 H        -0.906754         0.070118        -0.500347
 H         0.066666        -0.200235        -1.949596
 H         1.375316         1.390693         1.602749
 H         1.859590        -0.319557         1.912550
 H         3.956243        -0.355851         2.028565
 H         3.646577         2.864843         1.115121
 H         4.469542         2.394154        -0.397819
 H         1.845257         1.244656        -2.157929
 H         3.401673        -0.526371        -1.326616
