19
Iteration:  1151
 C         0.127978        -0.487055        -0.444030
 C         1.378552         0.326853        -0.171560
 C         1.796170         0.782065         1.213560
 C         3.285358         0.815524         0.710648
 O         4.376311         0.210371         1.360532
 C         3.511649         2.257716         0.311488
 O         2.594453         2.468246        -0.823009
 C         2.099885         1.245844        -1.201040
 C         2.826258         0.122714        -0.662883
 H         0.043374        -1.267299         0.282192
 H        -0.674741         0.169285        -0.516407
 H         0.075314        -1.084737        -1.365672
 H         1.375966         1.685373         1.745252
 H         1.538075        -0.056195         1.876174
 H         4.266794        -0.724285         1.349326
 H         3.289235         2.922767         1.140116
 H         4.522047         2.370477         0.003393
 H         1.665233         1.218964        -2.187693
 H         3.441635        -0.768064        -1.071860
