19
Iteration:  4375
 C         0.257015        -0.650129        -0.577472
 C         1.400961         0.275745        -0.322526
 C         1.844913         0.645931         1.236643
 C         3.281028         0.764079         0.598248
 O         4.264748         0.192357         1.483391
 C         3.451170         2.298468         0.406325
 O         2.585523         2.663763        -0.694550
 C         2.114254         1.337869        -1.173127
 C         2.801217         0.177616        -0.726404
 H         0.410143        -1.678745         0.014998
 H        -0.626562        -0.099457        -0.413957
 H         0.101275        -0.904581        -1.691424
 H         1.407983         1.522739         1.921436
 H         1.715514        -0.242264         1.885030
 H         4.310672        -0.726905         1.311082
 H         3.136633         2.796671         1.349121
 H         4.468587         2.633932         0.186552
 H         1.755321         1.431594        -2.209174
 H         3.289970        -0.533249        -1.340569
