19
Iteration:  3508charge 0 multiplicity 1
 C         0.165343        -0.603647        -0.694683
 C         1.286650         0.335799        -0.243289
 C         1.821208         0.602657         1.222063
 C         3.288963         0.819541         0.699913
 O         4.476999         0.150651         1.363751
 C         3.464450         2.294506         0.389877
 O         2.518886         2.589057        -0.715634
 C         2.064866         1.307275        -1.128018
 C         2.870096         0.193526        -0.658417
 H         0.149786        -1.609301        -0.136121
 H        -0.787152        -0.098833        -0.598307
 H         0.502708        -0.892466        -1.670361
 H         1.232393         1.327248         1.773595
 H         1.820931        -0.352762         1.712667
 H         4.439183         0.599578         2.271455
 H         3.125127         2.656556         1.401024
 H         4.425049         2.531821         0.059865
 H         1.692234         1.359325        -2.133112
 H         3.309809        -0.666107        -1.170734
