19
Iteration:  1290
 C         0.247132        -0.484623        -0.461769
 C         1.446878         0.324428        -0.137754
 C         1.799102         0.731804         1.169589
 C         3.314392         0.828278         0.718517
 O         4.277933         0.056562         1.370323
 C         3.475292         2.256935         0.302795
 O         2.551349         2.553862        -0.810782
 C         2.031380         1.282057        -1.213636
 C         2.860593         0.067718        -0.663342
 H         0.224548        -1.479746         0.033312
 H        -0.617496         0.181319        -0.297833
 H         0.040068        -0.705614        -1.549624
 H         1.335246         1.595812         1.604947
 H         1.670582         0.041384         2.002971
 H         4.800051         0.574752         2.070125
 H         3.139336         2.897347         1.125390
 H         4.443048         2.615529        -0.068943
 H         1.561410         1.200921        -2.176475
 H         3.417409        -0.692964        -1.340671
