19
Iteration:  1335
 C         0.133569        -0.603311        -0.464870
 C         1.326493         0.308829        -0.218172
 C         1.772263         0.555317         1.217963
 C         3.230425         0.748758         0.691976
 O         4.394737         0.293876         1.499202
 C         3.543390         2.313752         0.265249
 O         2.732431         2.606291        -0.847341
 C         2.040481         1.389338        -1.178819
 C         2.734633         0.139597        -0.656928
 H         0.202999        -1.358704         0.335004
 H        -0.791251        -0.104125        -0.647924
 H         0.267826        -1.210709        -1.436414
 H         1.258077         1.214173         1.876298
 H         1.676273        -0.358016         1.763742
 H         4.584227        -0.605703         1.058345
 H         3.345907         2.959072         1.111142
 H         4.609036         2.264490         0.052916
 H         1.780966         1.385670        -2.247112
 H         3.040860        -0.717764        -1.237062
