19
Iteration:  2273charge 0 multiplicity 1
 C         0.143035        -0.474580        -0.713517
 C         1.371680         0.350823        -0.211349
 C         1.870510         0.716576         1.337987
 C         3.297957         0.784856         0.631164
 O         4.413427         0.305754         1.344225
 C         3.583034         2.235242         0.157839
 O         2.405376         2.466155        -0.549011
 C         2.039414         1.202294        -1.108080
 C         2.888698         0.094144        -0.631101
 H         0.089404        -1.488171        -0.281051
 H        -0.890888        -0.144080        -0.503946
 H         0.042567        -0.504443        -1.727185
 H         1.456856         1.660639         1.739099
 H         1.983296        -0.158073         1.941642
 H         4.133662        -0.341799         2.027213
 H         3.588386         2.931438         1.010951
 H         4.453715         2.335876        -0.521813
 H         1.797142         1.431792        -2.121885
 H         3.293320        -0.899011        -0.904363
