19
Iteration:  2297charge 0 multiplicity 1
 C         0.152345        -0.478871        -0.463724
 C         1.477684         0.215462        -0.253303
 C         1.852105         0.585394         1.196666
 C         3.298308         0.837941         0.699987
 O         4.424279         0.205405         1.435108
 C         3.488480         2.286747         0.291260
 O         2.552735         2.571868        -0.761731
 C         1.990786         1.286553        -1.147797
 C         2.818577         0.148426        -0.708959
 H         0.056434        -1.395913         0.066650
 H        -0.762217         0.001773        -0.211253
 H        -0.099526        -0.673018        -1.536210
 H         1.274038         1.485535         1.370475
 H         1.764802        -0.296047         1.837619
 H         4.002316        -0.538944         1.970226
 H         3.264865         2.952892         1.209176
 H         4.477744         2.528427        -0.221525
 H         1.573299         1.357892        -2.196252
 H         3.267158        -0.353461        -1.497827
