19
Iteration:  4938charge 0 multiplicity 1
 C         0.293202        -0.612297        -0.689363
 C         1.342270         0.309151        -0.098549
 C         1.813131         0.572398         1.260827
 C         3.230797         0.885071         0.748924
 O         4.268648         0.170916         1.332127
 C         3.487898         2.300025         0.375171
 O         2.716560         2.559105        -0.799925
 C         2.039099         1.316177        -1.146532
 C         2.794015         0.202623        -0.651980
 H         0.455540        -1.682629        -0.401337
 H        -0.757940        -0.298098        -0.660559
 H         0.447837        -0.607910        -1.770996
 H         1.387097         1.421507         1.822795
 H         1.805889        -0.368381         1.874364
 H         3.933543        -0.502638         1.912262
 H         2.899564         2.872158         1.073343
 H         4.431327         2.830530         0.196361
 H         1.499728         1.513704        -2.062036
 H         3.514208        -0.449338        -1.149143
