19
Iteration:  3555charge 0 multiplicity 1
 C         0.184732        -0.479375        -0.684020
 C         1.446391         0.189330        -0.203802
 C         1.796419         0.556961         1.238335
 C         3.328357         0.764628         0.625906
 O         4.266667         0.302403         1.426149
 C         3.606955         2.275323         0.181973
 O         2.391382         2.561090        -0.523393
 C         2.053370         1.284561        -1.133489
 C         2.961720         0.190533        -0.689485
 H         0.112324        -1.617925        -0.591765
 H        -0.524183         0.043997        -0.152176
 H         0.308970        -0.294691        -1.768058
 H         1.336464         1.451738         1.716887
 H         1.802566        -0.377471         1.915848
 H         3.964493        -0.102574         2.254769
 H         3.695140         3.027424         0.940092
 H         4.432804         2.055374        -0.404964
 H         1.652857         1.236252        -2.181348
 H         3.529758        -0.533663        -1.258081
