19
Iteration:    88charge 0 multiplicity 1
 C        -0.239887        -0.230040        -0.306311
 C         1.249793         0.333300        -0.113327
 C         1.967949         1.056707         1.211350
 C         3.399461         0.871907         0.645217
 O         4.517083         0.200583         1.453369
 C         3.792623         2.172174        -0.136120
 O         2.574709         2.337118        -0.896821
 C         2.024750         1.025904        -1.202210
 C         2.680011        -0.078224        -0.380459
 H        -0.375402        -1.147550         0.256868
 H        -0.853657         0.644939        -0.058580
 H        -0.536187        -0.491231        -1.330583
 H         1.615197         2.018353         1.774467
 H         1.872224         0.237503         1.983608
 H         4.027501        -0.440670         2.004703
 H         3.858756         3.023239         0.531121
 H         4.754859         2.161823        -0.712813
 H         1.935850         0.628525        -2.254569
 H         3.123781        -0.981232        -0.788084
