19
Iteration:  1742
 C         0.131622        -0.502424        -0.610344
 C         1.347625         0.373009        -0.126271
 C         1.804094         0.611086         1.372171
 C         3.256673         0.806271         0.715609
 O         4.413690         0.181041         1.249731
 C         3.420326         2.336689         0.348009
 O         2.669394         2.513700        -0.867992
 C         2.082233         1.200548        -1.200252
 C         2.830169         0.147105        -0.562140
 H         0.240208        -1.561270        -0.218208
 H        -0.803966        -0.104188        -0.305773
 H         0.311570        -0.589008        -1.698955
 H         1.428274         1.513220         1.771641
 H         1.667868        -0.258819         2.012076
 H         4.344650         0.010777         2.257736
 H         2.900903         2.968006         1.001472
 H         4.457327         2.663836         0.141837
 H         1.786977         1.319561        -2.243478
 H         3.250699        -0.662896        -1.142755
