19
Iteration:  3491
 C         0.299385        -0.539748        -0.586875
 C         1.478016         0.272014        -0.226502
 C         1.840788         0.539133         1.224580
 C         3.232554         0.809876         0.720546
 O         4.247469         0.141472         1.236391
 C         3.383466         2.342421         0.459260
 O         2.571086         2.584748        -0.687263
 C         2.069398         1.311338        -1.192825
 C         2.876220         0.143234        -0.671156
 H         0.102567        -1.299086         0.175136
 H        -0.669132         0.005671        -0.549443
 H         0.179704        -1.029171        -1.605654
 H         1.439832         1.474745         1.708502
 H         1.711640        -0.431578         1.842162
 H         4.569444         0.651510         2.058492
 H         3.016218         3.033730         1.211396
 H         4.497789         2.629261         0.071569
 H         1.746710         1.374195        -2.263145
 H         3.529447        -0.489446        -1.231021
