19
Iteration:  3518
 C         0.179541        -0.607761        -0.763078
 C         1.307971         0.368729        -0.190624
 C         1.791694         0.549671         1.222903
 C         3.356557         0.752951         0.737545
 O         4.512541         0.222559         1.416331
 C         3.537828         2.292118         0.347866
 O         2.494595         2.538552        -0.660764
 C         2.004792         1.313277        -1.176268
 C         2.804470         0.193504        -0.652796
 H         0.068687        -1.587409        -0.241828
 H        -0.910149        -0.265540        -0.793856
 H         0.132978        -0.685768        -1.814908
 H         1.416995         1.385870         1.800389
 H         1.595019        -0.344063         1.731799
 H         4.418038         0.499874         2.396471
 H         3.405992         3.124739         1.175359
 H         4.387621         2.678523        -0.151270
 H         1.792030         1.340208        -2.221941
 H         3.170713        -0.592409        -1.338214
