19
Iteration:   493charge 0 multiplicity 1
 C        -0.037529        -0.380537        -0.298822
 C         1.326538         0.459083        -0.070565
 C         1.875704         0.914072         1.280088
 C         3.341176         0.810773         0.652323
 O         4.245364         0.158211         1.462344
 C         3.774651         2.235782         0.008163
 O         2.639336         2.406514        -0.970262
 C         2.049873         1.095748        -1.191652
 C         2.720736        -0.067644        -0.549183
 H         0.032062        -1.429212        -0.011325
 H        -0.904057         0.005575         0.177490
 H        -0.106339        -0.353812        -1.399850
 H         1.706644         1.877108         1.818045
 H         1.811850         0.088783         1.992129
 H         4.949942         0.852634         1.561003
 H         3.645749         2.975413         0.806585
 H         4.732138         2.257776        -0.613570
 H         1.599469         0.926817        -2.183538
 H         3.140154        -0.970017        -1.054674
