19
Iteration:  2905charge 0 multiplicity 1
 C         0.198933        -0.530035        -0.653065
 C         1.294933         0.305412        -0.085156
 C         1.829252         0.664122         1.316307
 C         3.286871         0.817923         0.724322
 O         4.418572         0.264852         1.284947
 C         3.454699         2.335418         0.360107
 O         2.686521         2.479588        -0.792126
 C         2.086931         1.291655        -1.210485
 C         2.733652         0.107943        -0.583816
 H        -0.069919        -1.601516        -0.137281
 H        -0.753714        -0.031163        -0.600946
 H         0.408733        -0.793849        -1.698706
 H         1.330054         1.555523         1.755097
 H         1.625828        -0.208962         2.034785
 H         4.268494        -0.733262         1.160748
 H         2.965916         3.017381         1.141209
 H         4.572870         2.496033         0.155483
 H         1.490534         1.260993        -2.143344
 H         3.247055        -0.691025        -1.037623
