19
Iteration:  3485
 C         0.300398        -0.533727        -0.540249
 C         1.490051         0.245864        -0.241262
 C         1.829111         0.518760         1.250919
 C         3.195244         0.856703         0.737213
 O         4.225717         0.105929         1.227868
 C         3.400640         2.378807         0.445140
 O         2.559830         2.554086        -0.704195
 C         2.123555         1.306231        -1.189307
 C         2.908113         0.202405        -0.720441
 H         0.052981        -1.355681         0.190450
 H        -0.491399         0.262406        -0.387701
 H         0.357566        -1.043328        -1.473784
 H         1.243129         1.353967         1.618440
 H         1.604332        -0.357246         1.765008
 H         4.507885         0.674478         1.950843
 H         3.054557         2.834511         1.438563
 H         4.292972         2.644643         0.043812
 H         1.767865         1.384594        -2.188777
 H         3.456482        -0.580776        -1.313338
