19
Iteration:  3950charge 0 multiplicity 1
 C         0.212829        -0.531662        -0.577033
 C         1.393696         0.325610        -0.245805
 C         1.849194         0.558461         1.171011
 C         3.217546         0.808022         0.708659
 O         4.244663         0.276778         1.466972
 C         3.581137         2.270035         0.348748
 O         2.510446         2.568556        -0.772374
 C         2.103562         1.300967        -1.176272
 C         2.871246         0.174202        -0.679904
 H         0.192366        -1.527722        -0.089144
 H        -0.670431        -0.015558        -0.253271
 H         0.212381        -0.809610        -1.668167
 H         1.371310         1.299925         1.846204
 H         1.849444        -0.465182         1.676765
 H         4.222096        -0.624969         1.852512
 H         3.306998         2.868963         1.241229
 H         4.591876         2.311577         0.084959
 H         1.924303         1.197003        -2.268714
 H         3.542529        -0.531444        -1.196872
