19
Iteration:   715charge 0 multiplicity 1
 C         0.119454        -0.392565        -0.347565
 C         1.354332         0.416553        -0.049361
 C         1.827392         0.888353         1.321680
 C         3.256242         0.838969         0.652607
 O         4.214011         0.159320         1.380364
 C         3.637779         2.150750         0.092696
 O         2.653970         2.426306        -0.899432
 C         2.085490         1.135158        -1.212939
 C         2.758946         0.013922        -0.614249
 H         0.414507        -1.321645         0.073740
 H        -0.819446         0.067829         0.063548
 H         0.036793        -0.593851        -1.395374
 H         1.316039         1.882205         1.512176
 H         1.677985         0.062512         2.070463
 H         4.978471         0.709179         1.651107
 H         3.770915         3.043954         0.706794
 H         4.649356         2.126893        -0.283952
 H         1.759729         1.028266        -2.209807
 H         3.225851        -0.913759        -1.068557
