19
Iteration:   310charge 0 multiplicity 1
 C         0.060952        -0.262610        -0.139826
 C         1.353050         0.403512        -0.100708
 C         1.835066         0.969694         1.253644
 C         3.299667         0.870147         0.654998
 O         4.265415         0.146094         1.309359
 C         3.631792         2.213503         0.078838
 O         2.760342         2.391941        -1.020835
 C         2.063688         1.020550        -1.263946
 C         2.733675         0.007660        -0.462278
 H         0.224427        -1.151470         0.461837
 H        -0.684442         0.269465         0.478828
 H        -0.238213        -0.692048        -1.096977
 H         1.440230         1.999001         1.516333
 H         1.630128         0.118666         1.901953
 H         4.043231        -0.797998         1.231186
 H         3.365437         3.024963         0.809303
 H         4.735640         2.234840        -0.233406
 H         1.628257         0.751713        -2.161208
 H         3.096819        -0.951542        -0.852852
