19
Iteration:  1305charge 0 multiplicity 1
 C         0.195533        -0.546223        -0.434797
 C         1.367847         0.346613        -0.236055
 C         1.847048         0.679803         1.260149
 C         3.216398         0.783735         0.633588
 O         4.207327         0.090312         1.358108
 C         3.469923         2.361851         0.330542
 O         2.664903         2.497592        -0.818271
 C         2.089104         1.266811        -1.191034
 C         2.861006         0.193199        -0.643772
 H         0.370307        -1.305640         0.375563
 H        -0.790831        -0.094308        -0.253263
 H         0.258839        -1.042592        -1.459238
 H         1.396290         1.548836         1.823264
 H         1.729587        -0.249661         1.836019
 H         5.033092         0.625975         1.285745
 H         3.172733         3.003569         1.177583
 H         4.614590         2.461904         0.164525
 H         1.773613         1.335238        -2.267088
 H         3.298452        -0.640792        -1.017421
