19
Iteration:  2525charge 0 multiplicity 1
 C        -0.012814        -0.459323        -0.704423
 C         1.345725         0.220877        -0.218870
 C         1.863583         0.568776         1.254761
 C         3.354885         0.665995         0.756178
 O         4.528904         0.491589         1.526558
 C         3.612507         2.222340         0.202036
 O         2.442013         2.508912        -0.652107
 C         1.971871         1.281216        -1.113870
 C         2.863651         0.089118        -0.745157
 H         0.018158        -1.449439        -0.419039
 H        -0.944589         0.038646        -0.318144
 H        -0.041578        -0.307337        -1.718882
 H         1.485702         1.573617         1.631309
 H         1.573893        -0.328925         1.786048
 H         4.406332        -0.483853         1.683568
 H         3.876474         2.936375         1.015119
 H         4.536079         2.197567        -0.424873
 H         1.485252         1.424844        -2.045815
 H         3.459872        -0.588473        -1.403639
