19
Iteration:  2399charge 0 multiplicity 1
 C         0.130998        -0.415354        -0.730349
 C         1.398466         0.288491        -0.155058
 C         1.847111         0.670431         1.230968
 C         3.375965         0.841928         0.657981
 O         4.502747         0.274400         1.473299
 C         3.589376         2.231615         0.111368
 O         2.348281         2.551649        -0.530291
 C         1.962987         1.191148        -1.124996
 C         2.859536         0.059312        -0.631255
 H         0.098187        -1.415818        -0.526854
 H        -0.807447         0.003238        -0.586512
 H         0.231239        -0.564348        -1.827171
 H         1.322854         1.387271         1.774771
 H         1.818872        -0.180487         1.889617
 H         4.088915        -0.529510         1.738860
 H         3.696930         3.118329         0.806317
 H         4.420911         2.314757        -0.711459
 H         1.589931         1.277614        -2.100148
 H         3.331724        -0.948354        -0.902089
