19
Iteration:  3589charge 0 multiplicity 1
 C         0.158199        -0.562408        -0.513004
 C         1.367895         0.294858        -0.363062
 C         1.881299         0.652487         1.135745
 C         3.323082         0.738719         0.614128
 O         4.369843         0.225070         1.551591
 C         3.492616         2.313830         0.374243
 O         2.436962         2.579193        -0.651491
 C         2.072361         1.272949        -1.223963
 C         2.950091         0.178001        -0.708255
 H         0.204868        -1.563378        -0.075506
 H        -0.757307        -0.094040        -0.249133
 H        -0.045156        -0.582345        -1.623516
 H         1.463601         1.556181         1.656848
 H         1.608262        -0.264207         1.765149
 H         4.107791        -0.740524         1.493200
 H         3.238575         2.857593         1.235012
 H         4.483964         2.632199         0.126810
 H         1.851478         1.419953        -2.285825
 H         3.371564        -0.661571        -1.296285
