19
Iteration:  2701
 C         0.095501        -0.318990        -0.491933
 C         1.422567         0.257125        -0.274826
 C         1.783071         0.668734         1.071621
 C         3.351357         0.711051         0.699885
 O         4.452269         0.278918         1.497455
 C         3.508329         2.316187         0.197922
 O         2.357894         2.451626        -0.586746
 C         2.088984         1.135266        -1.260454
 C         2.954253         0.083176        -0.665082
 H         0.090997        -1.224607         0.105357
 H        -0.629632         0.430269         0.149166
 H        -0.237558        -0.529693        -1.523457
 H         1.453824         1.613874         1.563806
 H         1.511870        -0.057464         1.847755
 H         4.046210        -0.530863         1.898486
 H         3.451501         3.062795         1.065722
 H         4.549810         2.562441        -0.348435
 H         2.050690         1.146878        -2.393105
 H         3.680920        -0.315966        -1.325784
