19
Iteration:  2148charge 0 multiplicity 1
 C         0.146007        -0.442770        -0.631572
 C         1.343328         0.245017        -0.176362
 C         1.892500         0.598657         1.238487
 C         3.281223         0.815320         0.618085
 O         4.379106         0.312701         1.337811
 C         3.535985         2.318211         0.314865
 O         2.518442         2.507607        -0.677437
 C         2.034801         1.240985        -1.102622
 C         2.806293         0.051420        -0.673939
 H         0.212885        -1.534831        -0.433211
 H        -0.737324        -0.054189        -0.090491
 H        -0.067926        -0.528485        -1.746027
 H         1.599607         1.499245         1.830583
 H         1.986332        -0.358281         1.868509
 H         4.313332        -0.192406         2.206769
 H         3.683120         3.149507         1.008768
 H         4.579260         2.342906        -0.096691
 H         1.574445         1.392629        -2.106254
 H         3.391135        -0.676934        -1.120510
