19
Iteration:   355
 C        -0.061603        -0.345001        -0.286562
 C         1.188588         0.466799        -0.086931
 C         1.909964         0.801552         1.217045
 C         3.376500         0.777984         0.582609
 O         4.378957         0.233252         1.527071
 C         3.815516         2.144217        -0.028876
 O         2.723437         2.413806        -0.982230
 C         1.940944         1.183632        -1.154502
 C         2.636958        -0.065259        -0.511429
 H        -0.223562        -1.116612         0.457720
 H        -0.962894         0.282237        -0.116334
 H        -0.031256        -0.831700        -1.268736
 H         1.670557         1.783056         1.718590
 H         1.921064        -0.092412         1.908228
 H         4.534488         0.953152         2.153240
 H         3.739106         3.058316         0.635299
 H         4.709278         2.140245        -0.723864
 H         1.759965         0.950326        -2.255135
 H         2.946207        -0.970901        -1.074480
