19
Iteration:  3375
 C         0.238186        -0.578856        -0.661647
 C         1.391215         0.327091        -0.249431
 C         1.879005         0.608598         1.180947
 C         3.305251         0.830367         0.709014
 O         4.295370         0.238416         1.453147
 C         3.516560         2.278902         0.327526
 O         2.470627         2.524771        -0.659752
 C         2.028870         1.321863        -1.104907
 C         2.873342         0.165247        -0.662904
 H         0.360672        -1.598985        -0.221385
 H        -0.756031        -0.142355        -0.278175
 H         0.145062        -0.516210        -1.754207
 H         1.251847         1.368232         1.714067
 H         1.786686        -0.320214         1.708762
 H         4.588931        -0.605302         0.997088
 H         3.410982         3.019547         1.253641
 H         4.489162         2.578091        -0.236006
 H         1.814559         1.351858        -2.195121
 H         3.239779        -0.694660        -1.202627
