19
Iteration:  3801
 C         0.237308        -0.541357        -0.678111
 C         1.352213         0.259089        -0.246476
 C         1.719571         0.608704         1.304535
 C         3.195925         0.768097         0.754959
 O         4.395061         0.349408         1.391862
 C         3.478043         2.181180         0.350613
 O         2.589325         2.601662        -0.707098
 C         2.087107         1.254171        -1.198098
 C         2.875682         0.144579        -0.679900
 H         0.193132        -1.485838        -0.155749
 H        -0.764910         0.094145        -0.618378
 H         0.362290        -0.696889        -1.755792
 H         1.437949         1.651037         1.734865
 H         1.502573        -0.181967         2.061918
 H         4.285455        -0.540852         1.767775
 H         3.433862         2.893742         1.152399
 H         4.459485         2.328520        -0.073163
 H         1.851165         1.314702        -2.260596
 H         3.519000        -0.597338        -1.164227
