19
Iteration:   128charge 0 multiplicity 1
 C         0.070183        -0.197393        -0.243421
 C         1.352168         0.372886        -0.021718
 C         1.916920         0.928285         1.338998
 C         3.289316         0.750079         0.617117
 O         4.264001         0.323818         1.445997
 C         3.767689         1.966045        -0.058559
 O         2.687041         2.353172        -0.971299
 C         1.941196         1.140730        -1.237232
 C         2.657013        -0.100228        -0.575210
 H         0.003964        -1.283161         0.150108
 H        -0.600720         0.513131         0.279966
 H        -0.324449        -0.245015        -1.300283
 H         1.590420         1.918865         1.639556
 H         1.869133         0.127635         2.069167
 H         4.553858         1.174980         1.859617
 H         4.076769         2.795247         0.614036
 H         4.690998         1.747349        -0.687670
 H         1.513315         1.256390        -2.151541
 H         2.856478        -1.091268        -0.981040
