19
Iteration:   651charge 0 multiplicity 1
 C         0.067900        -0.225574        -0.325472
 C         1.431924         0.314181        -0.131470
 C         1.858880         0.804597         1.137014
 C         3.319142         0.755396         0.635681
 O         4.318841         0.395713         1.525970
 C         3.634925         2.078435         0.040111
 O         2.580491         2.374327        -0.807303
 C         1.980811         1.196511        -1.204744
 C         2.771536        -0.046373        -0.579502
 H        -0.080763        -1.212127         0.105331
 H        -0.833116         0.357761        -0.003657
 H        -0.163081        -0.360700        -1.350474
 H         1.412728         1.748317         1.433553
 H         1.831041         0.151022         2.010018
 H         4.568105        -0.485408         1.255696
 H         3.695448         2.979810         0.712543
 H         4.785428         2.018123        -0.386255
 H         1.732910         1.027342        -2.214289
 H         3.260185        -0.986804        -0.983720
