19
Iteration:  3512charge 0 multiplicity 1
 C         0.165991        -0.612052        -0.708598
 C         1.283443         0.353862        -0.219329
 C         1.816431         0.592225         1.217386
 C         3.310416         0.806633         0.728288
 O         4.505134         0.169218         1.388205
 C         3.489481         2.289839         0.387544
 O         2.511897         2.572118        -0.705308
 C         2.052942         1.302023        -1.134956
 C         2.849472         0.204151        -0.665786
 H         0.069729        -1.608077        -0.182227
 H        -0.848138        -0.204306        -0.702760
 H         0.374998        -0.814998        -1.834887
 H         1.227832         1.383939         1.774791
 H         1.711353        -0.456278         1.716767
 H         4.379581         0.578478         2.239146
 H         3.216106         2.702403         1.340060
 H         4.428848         2.670364        -0.169491
 H         1.723338         1.363737        -2.205017
 H         3.212139        -0.631419        -1.222267
