19
Iteration:  3842charge 0 multiplicity 1
 C         0.025507        -0.494363        -0.564310
 C         1.426340         0.223058        -0.291530
 C         1.961107         0.526726         1.111938
 C         3.376942         0.831195         0.615240
 O         4.199733         0.333781         1.618408
 C         3.608897         2.341108         0.245768
 O         2.384898         2.534948        -0.537159
 C         2.139318         1.227176        -1.262817
 C         2.984373         0.126025        -0.761801
 H        -0.153577        -1.314856         0.092743
 H        -0.862240         0.205322        -0.467559
 H        -0.249375        -0.697097        -1.617750
 H         1.492968         1.363143         1.542938
 H         1.895707        -0.396557         1.736387
 H         3.714666        -0.450754         2.028371
 H         3.589461         3.011260         1.145278
 H         4.714136         2.269505        -0.186381
 H         1.944450         1.268348        -2.374643
 H         3.668055        -0.440639        -1.366686
