19
Iteration:  1254
 C         0.040885        -0.438657        -0.633512
 C         1.340112         0.297019        -0.234519
 C         1.856175         0.694476         1.170576
 C         3.357509         0.810911         0.673381
 O         4.348373         0.371311         1.480709
 C         3.674481         2.210884         0.090535
 O         2.428825         2.465385        -0.573349
 C         2.081476         1.191924        -1.145996
 C         2.882390         0.060376        -0.561700
 H         0.042153        -1.481649        -0.358536
 H        -0.818658        -0.051721        -0.061155
 H         0.024796        -0.296113        -1.659214
 H         1.337077         1.531312         1.657009
 H         2.059152        -0.227810         1.754422
 H         4.113079        -0.539678         1.876271
 H         3.860723         2.949795         0.881568
 H         4.531057         2.108983        -0.515497
 H         1.638241         1.289933        -2.135885
 H         3.359114        -0.505124        -1.319050
