19
Iteration:  3738charge 0 multiplicity 1
 C         0.272771        -0.509554        -0.565787
 C         1.454191         0.317751        -0.263425
 C         1.836633         0.557343         1.174797
 C         3.235892         0.752201         0.713364
 O         4.247265         0.278829         1.542527
 C         3.478785         2.240426         0.348643
 O         2.536403         2.597641        -0.756804
 C         2.036896         1.330802        -1.220652
 C         2.879789         0.155782        -0.730931
 H         0.342626        -1.542042        -0.147071
 H        -0.597853        -0.044304        -0.141782
 H         0.193555        -0.746427        -1.605349
 H         1.559638         1.519301         1.663781
 H         1.778575        -0.193679         1.947716
 H         4.369891        -0.665207         1.223202
 H         3.274913         2.732842         1.349276
 H         4.523008         2.305457         0.033861
 H         1.644995         1.278206        -2.227956
 H         3.408370        -0.709906        -1.203730
