19
Iteration:  2503
 C         0.162966        -0.468684        -0.684078
 C         1.312222         0.245507        -0.137143
 C         1.848220         0.585709         1.283001
 C         3.317289         0.780146         0.657964
 O         4.426293         0.351938         1.319394
 C         3.509230         2.309862         0.294553
 O         2.568843         2.520728        -0.694988
 C         1.992843         1.229468        -1.157487
 C         2.796808         0.103744        -0.595136
 H         0.262556        -1.456699        -0.337600
 H        -0.767132        -0.022700        -0.219406
 H         0.100383        -0.333178        -1.712548
 H         1.427036         1.469056         1.867846
 H         2.087438        -0.253455         1.940086
 H         4.065715        -0.499576         1.588671
 H         3.371561         2.944247         1.198677
 H         4.563209         2.470497        -0.005752
 H         1.822420         1.133531        -2.207573
 H         3.250904        -0.754033        -1.110561
