19
Iteration:  2248charge 0 multiplicity 1
 C         0.239016        -0.492914        -0.717784
 C         1.329828         0.280041        -0.141755
 C         1.796970         0.693798         1.240786
 C         3.308003         0.767744         0.667626
 O         4.514084         0.350598         1.430574
 C         3.650899         2.171568         0.130432
 O         2.386234         2.538900        -0.566825
 C         1.954020         1.248372        -1.073895
 C         2.756709         0.087963        -0.603702
 H        -0.053990        -1.531278        -0.438291
 H        -0.780995        -0.013507        -0.711985
 H         0.321101        -0.368152        -1.776250
 H         1.420338         1.687389         1.565314
 H         1.866104        -0.211655         1.847787
 H         4.426061        -0.531999         1.784108
 H         3.909476         2.979621         0.764666
 H         4.447738         2.049270        -0.566137
 H         1.696503         1.401585        -2.117537
 H         3.294468        -0.683092        -1.242812
