19
Iteration:   439
 C         0.024520        -0.328972        -0.189880
 C         1.339401         0.455052        -0.100507
 C         1.882312         0.827977         1.258830
 C         3.312549         0.797345         0.665295
 O         4.341489         0.262146         1.403097
 C         3.592219         2.143331         0.074548
 O         2.740844         2.388159        -1.070348
 C         2.059892         1.158693        -1.227300
 C         2.707531        -0.012224        -0.548174
 H         0.063001        -1.144890         0.536709
 H        -0.806715         0.369325        -0.038219
 H        -0.207540        -0.650368        -1.224941
 H         1.658430         1.765092         1.777329
 H         1.780052         0.107147         2.063897
 H         3.931239        -0.539937         1.803410
 H         3.354928         2.887857         0.823310
 H         4.615792         2.328642        -0.138280
 H         1.560284         0.975060        -2.134823
 H         3.102569        -0.914608        -1.067832
