19
Iteration:  3815charge 0 multiplicity 1
 C         0.208964        -0.472958        -0.644907
 C         1.453426         0.323324        -0.275035
 C         1.832566         0.576257         1.118459
 C         3.309123         0.721540         0.702748
 O         4.363298         0.353191         1.549126
 C         3.519312         2.230911         0.315683
 O         2.459937         2.505263        -0.674938
 C         2.065389         1.334565        -1.191124
 C         2.855007         0.111361        -0.679969
 H         0.120402        -1.359516         0.056618
 H        -0.722292         0.066274        -0.445014
 H         0.135584        -0.838244        -1.677057
 H         1.279143         1.548888         1.483910
 H         1.529125        -0.274557         1.769674
 H         4.128625        -0.490993         2.022616
 H         3.361312         2.920010         1.170050
 H         4.515998         2.201802        -0.023938
 H         1.648910         1.327937        -2.182164
 H         3.290949        -0.646018        -1.374373
