19
Iteration:    34
 C        -0.086253        -0.330553        -0.013596
 C         1.228141         0.474712        -0.060675
 C         1.873970         0.845860         1.318122
 C         3.284145         0.794007         0.651331
 O         4.322514         0.230509         1.500644
 C         3.716847         2.173007         0.005863
 O         2.906789         2.310187        -1.163258
 C         2.046135         1.176184        -1.314018
 C         2.578476        -0.001470        -0.620754
 H        -0.116896        -0.873771         0.927127
 H        -1.036472         0.237570        -0.110124
 H        -0.060600        -1.077426        -0.811336
 H         1.631415         1.877532         1.678145
 H         1.701563         0.076636         2.085407
 H         5.222600         0.346134         1.110675
 H         3.616751         3.049028         0.650472
 H         4.748394         2.111978        -0.360845
 H         1.480720         1.093724        -2.276315
 H         2.831985        -0.997161        -0.964997
