19
Iteration:  4721
 C         0.069572        -0.446009        -0.671291
 C         1.412921         0.210392        -0.343716
 C         1.724643         0.532675         1.080710
 C         3.304913         0.775133         0.665792
 O         4.387445         0.356013         1.485171
 C         3.575909         2.227579         0.266204
 O         2.426059         2.555986        -0.507812
 C         2.099099         1.333823        -1.109194
 C         2.995725         0.076547        -0.618577
 H        -0.185432        -1.352074        -0.178985
 H        -0.812259         0.291733        -0.285659
 H        -0.212017        -0.655803        -1.792571
 H         1.181235         1.395438         1.391245
 H         2.038281        -0.262109         1.844091
 H         4.050278        -0.532288         1.743702
 H         3.700217         2.965184         1.027608
 H         4.486975         2.436635        -0.292777
 H         2.132109         1.286715        -2.266349
 H         3.789776        -0.599111        -1.122888
