19
Iteration:  3289charge 0 multiplicity 1
 C         0.239604        -0.441249        -0.733387
 C         1.402701         0.272645        -0.193713
 C         1.857296         0.529144         1.243357
 C         3.277728         0.793880         0.742131
 O         4.457386         0.288214         1.416611
 C         3.546158         2.198685         0.214856
 O         2.430737         2.546669        -0.638256
 C         1.966626         1.299870        -1.114597
 C         2.786366         0.105924        -0.678192
 H         0.030695        -1.446561        -0.270700
 H        -0.609337         0.187800        -0.683063
 H         0.304812        -0.495930        -1.772250
 H         1.241955         1.320164         1.809839
 H         1.750305        -0.342171         1.905535
 H         4.225959         0.344266         2.374076
 H         3.693602         2.866694         1.004611
 H         4.519075         2.275747        -0.234394
 H         1.639015         1.384254        -2.173986
 H         3.455348        -0.476870        -1.242071
