19
Iteration:  1067charge 0 multiplicity 1
 C         0.002908        -0.445689        -0.517700
 C         1.307143         0.318859        -0.190621
 C         1.905711         0.789464         1.256235
 C         3.316996         0.855070         0.674723
 O         4.356545         0.218874         1.354865
 C         3.595814         2.268001         0.194541
 O         2.569101         2.468349        -0.747866
 C         2.112939         1.133630        -1.236234
 C         2.828326         0.076308        -0.559241
 H         0.141936        -1.506158        -0.091655
 H        -0.990217        -0.182213         0.063862
 H        -0.157723        -0.521428        -1.598104
 H         1.584730         1.775175         1.619626
 H         1.647673        -0.013960         1.940800
 H         4.081166        -0.245508         2.198922
 H         3.409819         2.924684         1.113084
 H         4.639509         2.480046        -0.240095
 H         1.879721         1.200555        -2.301715
 H         3.498356        -0.771000        -0.950256
