19
Iteration:  1244
 C         0.114995        -0.393523        -0.601663
 C         1.360848         0.235673        -0.211508
 C         1.824787         0.633609         1.177566
 C         3.277592         0.835912         0.628981
 O         4.387431         0.438321         1.576526
 C         3.729121         2.140377         0.103432
 O         2.447201         2.495211        -0.585724
 C         2.048590         1.236534        -1.143599
 C         2.797090         0.038626        -0.647180
 H         0.189970        -1.468795        -0.483194
 H        -0.782948         0.118040        -0.186479
 H        -0.189663        -0.379039        -1.630455
 H         1.301522         1.360787         1.790368
 H         1.693426        -0.283558         1.813867
 H         4.417550        -0.558056         1.358842
 H         3.954983         2.961096         0.797515
 H         4.482489         2.068942        -0.654311
 H         1.703154         1.278260        -2.169803
 H         3.417916        -0.668530        -1.212527
