19
Iteration:   742charge 0 multiplicity 1
 C         0.080880        -0.489482        -0.384668
 C         1.290046         0.429241        -0.106396
 C         1.832190         0.971497         1.251106
 C         3.318150         0.841524         0.701640
 O         4.360963         0.038085         1.434456
 C         3.577355         2.285070         0.180276
 O         2.711854         2.443493        -1.004155
 C         2.031162         1.153357        -1.196159
 C         2.699438         0.055777        -0.519939
 H         0.211744        -1.224702         0.470236
 H        -0.853289         0.056370        -0.221759
 H         0.002541        -1.058569        -1.356935
 H         1.354410         1.882106         1.524400
 H         1.710451         0.204168         1.989258
 H         4.969878        -0.273442         0.698456
 H         3.350401         3.114535         0.902059
 H         4.675857         2.615932         0.104872
 H         1.744951         0.938349        -2.288316
 H         3.099119        -0.845256        -0.887396
