19
Iteration:  4031
 C         0.191475        -0.537049        -0.747746
 C         1.297888         0.383548        -0.141071
 C         1.839200         0.490650         1.240179
 C         3.343175         0.840025         0.733174
 O         4.414282         0.227048         1.463942
 C         3.467190         2.358978         0.307776
 O         2.563264         2.542703        -0.830893
 C         2.042253         1.293764        -1.130084
 C         2.800871         0.151727        -0.555831
 H         0.216522        -1.482206        -0.253879
 H        -0.865950        -0.069642        -0.781036
 H         0.351370        -0.562165        -1.803240
 H         1.384135         1.190980         1.945066
 H         1.761479        -0.559805         1.634800
 H         4.124524        -0.610392         1.799671
 H         3.440815         2.994665         1.183862
 H         4.542070         2.493156        -0.026176
 H         1.839057         1.258053        -2.213064
 H         3.163152        -0.655613        -1.154263
