19
Iteration:   398
 C        -0.003138        -0.199775        -0.340792
 C         1.395816         0.265132        -0.077003
 C         1.868000         0.938913         1.211845
 C         3.323695         0.742364         0.691573
 O         4.356689         0.230284         1.491599
 C         3.701650         2.118228        -0.069706
 O         2.497816         2.399792        -0.885826
 C         2.037611         1.100965        -1.116299
 C         2.800965        -0.013149        -0.499920
 H        -0.432828        -0.915072         0.409123
 H        -0.716795         0.758258        -0.289065
 H        -0.078598        -0.645100        -1.386325
 H         1.480352         1.990924         1.395171
 H         1.535872         0.339610         2.095903
 H         5.036263        -0.049251         0.821726
 H         3.939606         2.980894         0.637109
 H         4.521383         1.797881        -0.791134
 H         1.614069         1.127439        -2.180968
 H         3.312328        -0.826296        -1.058613
