19
Iteration:  1606
 C         0.234709        -0.496442        -0.572995
 C         1.365752         0.335097        -0.144689
 C         1.853997         0.740698         1.310708
 C         3.260580         0.826853         0.660878
 O         4.272356         0.164333         1.332325
 C         3.348869         2.325210         0.399051
 O         2.648887         2.514068        -0.772346
 C         2.165203         1.174797        -1.251749
 C         2.824335         0.094203        -0.601491
 H         0.331723        -1.558365        -0.280909
 H        -0.778854        -0.071454        -0.223936
 H         0.169602        -0.523321        -1.706404
 H         1.540181         1.663889         1.637071
 H         1.684874        -0.185101         1.865260
 H         4.904483         0.061844         0.633279
 H         2.875203         2.594193         1.345777
 H         4.367596         2.693785         0.341963
 H         1.681446         1.299580        -2.205525
 H         3.223957        -0.751675        -1.026911
