19
Iteration:    49charge 0 multiplicity 1
 C         0.093156        -0.248917        -0.074741
 C         1.381229         0.425285        -0.024884
 C         1.842239         0.950986         1.316850
 C         3.243436         0.760269         0.717850
 O         4.312259         0.257145         1.483436
 C         3.605567         2.006891        -0.000089
 O         2.830295         2.322473        -1.219901
 C         1.961867         1.184359        -1.213653
 C         2.675866        -0.003242        -0.613173
 H        -0.178344        -0.616365         0.924653
 H        -0.675345         0.569557        -0.057110
 H        -0.050578        -0.944906        -0.905573
 H         1.490805         1.856713         1.679706
 H         1.660038         0.128824         1.985628
 H         4.815728        -0.245110         0.774993
 H         3.361890         2.886812         0.673020
 H         4.658963         1.928645        -0.262175
 H         1.396913         1.231573        -2.226713
 H         2.987210        -0.900642        -1.176713
