19
Iteration:  3927
 C         0.253960        -0.594959        -0.703928
 C         1.417571         0.292191        -0.125699
 C         1.704926         0.538211         1.306675
 C         3.194003         0.861929         0.781555
 O         4.389905         0.244046         1.409998
 C         3.460318         2.333360         0.319641
 O         2.720610         2.531642        -0.839596
 C         2.024472         1.391713        -1.103897
 C         2.777003         0.156294        -0.703583
 H         0.238306        -1.675895        -0.355428
 H        -0.668923        -0.168025        -0.488783
 H         0.436936        -0.685715        -1.823073
 H         1.150035         1.418084         1.761738
 H         1.737058        -0.297243         2.059027
 H         4.326721        -0.704718         1.390795
 H         3.118972         3.166045         0.988237
 H         4.490036         2.313480         0.137387
 H         1.504972         1.305088        -2.089463
 H         3.297424        -0.733705        -1.021268
