19
Iteration:  3910charge 0 multiplicity 1
 C         0.230319        -0.616882        -0.783910
 C         1.250226         0.308987        -0.156393
 C         1.801425         0.650263         1.293439
 C         3.289774         0.799364         0.714046
 O         4.396777         0.316560         1.378906
 C         3.530469         2.309770         0.478171
 O         2.694132         2.556771        -0.831552
 C         2.005448         1.231261        -1.197629
 C         2.735631         0.130562        -0.506540
 H         0.394044        -1.586890        -0.376393
 H        -0.876317        -0.257326        -0.657181
 H         0.408452        -0.614311        -1.841783
 H         1.397235         1.432481         1.895642
 H         1.717795        -0.275226         1.868536
 H         4.282782        -0.632079         1.282488
 H         3.078345         2.879959         1.271267
 H         4.566617         2.705294         0.094871
 H         1.614322         1.251898        -2.204308
 H         3.227928        -0.545236        -1.247248
