19
Iteration:  3604charge 0 multiplicity 1
 C         0.225597        -0.551175        -0.533162
 C         1.407871         0.348666        -0.248353
 C         1.785021         0.591703         1.173446
 C         3.260354         0.769837         0.690458
 O         4.280753         0.309569         1.389993
 C         3.417817         2.248702         0.420265
 O         2.567890         2.541123        -0.655026
 C         2.172009         1.329873        -1.243344
 C         2.849457         0.108771        -0.760582
 H         0.439259        -1.334576         0.165337
 H        -0.702798        -0.058496        -0.045412
 H         0.145012        -0.963021        -1.535335
 H         1.343958         1.517994         1.654475
 H         1.750793        -0.270096         1.836566
 H         4.479860        -0.657567         1.345565
 H         3.065606         2.774433         1.336295
 H         4.489021         2.473003         0.074320
 H         1.856694         1.335285        -2.282791
 H         3.514431        -0.492882        -1.360450
