19
Iteration:    98
 C        -0.198354        -0.200739        -0.327714
 C         1.240032         0.356189        -0.125217
 C         1.874184         1.015681         1.211753
 C         3.422974         0.772508         0.657558
 O         4.523484         0.257001         1.424464
 C         3.807389         2.085370        -0.127945
 O         2.550158         2.340916        -0.880279
 C         1.984617         1.036543        -1.163484
 C         2.763834        -0.050460        -0.384779
 H        -0.429759        -1.118944         0.263867
 H        -0.940821         0.428554         0.177638
 H        -0.386613        -0.312531        -1.412309
 H         1.625420         2.160949         1.342047
 H         1.635414         0.398182         2.121737
 H         4.276324         0.028203         2.318342
 H         4.087374         2.904971         0.519343
 H         4.587380         1.764660        -0.880175
 H         1.804376         0.977313        -2.234051
 H         3.213899        -0.905322        -0.876610
