19
Iteration:  1356
 C         0.149230        -0.476562        -0.586891
 C         1.347976         0.336765        -0.177105
 C         1.886306         0.628986         1.261817
 C         3.299739         0.800105         0.690589
 O         4.366789         0.339519         1.416091
 C         3.571003         2.179917         0.263398
 O         2.557711         2.483616        -0.755786
 C         2.003406         1.249490        -1.132568
 C         2.828403         0.130486        -0.711329
 H         0.044974        -1.341424         0.075855
 H        -0.720481         0.132666        -0.731723
 H         0.321765        -0.829179        -1.638870
 H         1.331461         1.399914         1.794358
 H         1.635475        -0.249697         1.860285
 H         3.962217        -0.257377         2.032408
 H         3.404506         2.803445         1.133016
 H         4.592632         2.223299        -0.045475
 H         1.552270         1.396473        -2.112636
 H         3.434978        -0.550100        -1.294556
