19
Iteration:  2339charge 0 multiplicity 1
 C         0.130105        -0.513947        -0.393296
 C         1.310453         0.356172        -0.293851
 C         1.838582         0.482675         1.183885
 C         3.294927         0.792739         0.690948
 O         4.434664         0.301883         1.417469
 C         3.403108         2.291059         0.358107
 O         2.635131         2.553375        -0.786187
 C         2.113698         1.353971        -1.238721
 C         2.780016         0.093896        -0.694871
 H         0.403275        -1.247567         0.415289
 H        -0.767653         0.027016         0.038322
 H        -0.100927        -0.829649        -1.372446
 H         1.342492         1.220416         1.894247
 H         1.915353        -0.581022         1.470497
 H         4.338793        -0.662671         1.482525
 H         3.007289         2.999404         1.092462
 H         4.431365         2.553477         0.175204
 H         2.057206         1.292002        -2.364713
 H         3.190329        -0.641219        -1.349133
