19
Iteration:  4388
 C         0.292529        -0.553008        -0.654347
 C         1.405661         0.337117        -0.193631
 C         1.813046         0.559663         1.171894
 C         3.250820         0.788753         0.729612
 O         4.268339         0.200140         1.467620
 C         3.499997         2.258048         0.330449
 O         2.530523         2.601157        -0.703252
 C         1.978464         1.362489        -1.152033
 C         2.943006         0.188569        -0.697565
 H         0.475618        -1.538744        -0.142314
 H        -0.651219        -0.293830        -0.200913
 H         0.301064        -0.766044        -1.709974
 H         1.339310         1.527459         1.497656
 H         1.766352        -0.267086         1.892851
 H         4.163927        -0.797745         1.346566
 H         3.351483         2.952619         1.184617
 H         4.512750         2.315528        -0.042214
 H         1.643909         1.342071        -2.158434
 H         3.489570        -0.501166        -1.370779
