19
Iteration:  3060
 C         0.184913        -0.578414        -0.473153
 C         1.349144         0.306688        -0.218261
 C         1.745934         0.639614         1.242740
 C         3.280737         0.795097         0.728471
 O         4.348613         0.081487         1.318901
 C         3.426792         2.351018         0.361807
 O         2.705358         2.620106        -0.858809
 C         2.051314         1.281984        -1.158126
 C         2.833767         0.140454        -0.682647
 H         0.502159        -1.466712         0.143727
 H        -0.726391        -0.100806        -0.229815
 H         0.104176        -1.002175        -1.421556
 H         1.268682         1.498214         1.654548
 H         1.563230        -0.224510         1.862464
 H         4.533018         0.624180         2.083627
 H         3.128101         3.014181         1.224027
 H         4.487841         2.562538         0.212203
 H         1.854966         1.340631        -2.217533
 H         3.332524        -0.627982        -1.359838
