19
Iteration:  2580charge 0 multiplicity 1
 C         0.092687        -0.516800        -0.462446
 C         1.388253         0.240829        -0.223956
 C         1.866276         0.663127         1.134735
 C         3.357170         0.803386         0.685478
 O         4.395011         0.176371         1.452061
 C         3.521039         2.312823         0.277239
 O         2.466137         2.548505        -0.727821
 C         2.077890         1.271041        -1.197436
 C         2.911595         0.198992        -0.713337
 H        -0.089537        -1.341915         0.167434
 H        -0.712402         0.233086        -0.220131
 H         0.047375        -0.896621        -1.443616
 H         1.211048         1.410154         1.708649
 H         1.726990        -0.114341         1.924244
 H         3.884009        -0.626406         1.782981
 H         3.232856         2.829058         1.228686
 H         4.518131         2.510698        -0.224149
 H         1.700395         1.267623        -2.187723
 H         3.511192        -0.463750        -1.396003
