19
Iteration:  1862charge 0 multiplicity 1
 C         0.195771        -0.522684        -0.631453
 C         1.367471         0.304508        -0.144362
 C         1.804888         0.673198         1.248443
 C         3.332163         0.820083         0.654726
 O         4.425250         0.253294         1.425649
 C         3.598202         2.277102         0.205987
 O         2.499134         2.540229        -0.673931
 C         2.000656         1.224636        -1.163294
 C         2.749251         0.086611        -0.643296
 H         0.020375        -1.542608        -0.122263
 H        -0.630725         0.201725        -0.570371
 H         0.515336        -0.796146        -1.694220
 H         1.423096         1.579725         1.669028
 H         1.873927        -0.152826         1.975150
 H         4.053368        -0.314118         2.075824
 H         3.607134         2.991666         1.050631
 H         4.580863         2.362742        -0.372738
 H         1.443987         1.321951        -2.106114
 H         3.123045        -0.624078        -1.316173
