19
Iteration:  2469charge 0 multiplicity 1
 C         0.249821        -0.585606        -0.427722
 C         1.360489         0.372159        -0.214581
 C         1.854555         0.623780         1.271459
 C         3.235069         0.797570         0.651026
 O         4.385023         0.084575         1.338691
 C         3.366961         2.268932         0.378297
 O         2.620496         2.618630        -0.851413
 C         2.017292         1.293787        -1.219359
 C         2.873336         0.287108        -0.669624
 H         0.456649        -1.442882         0.203855
 H        -0.786277        -0.227740        -0.115808
 H         0.151106        -1.056039        -1.352592
 H         1.471151         1.533603         1.809544
 H         1.593404        -0.243492         1.913053
 H         4.115143        -0.764261         1.645909
 H         3.018264         2.852943         1.235361
 H         4.388709         2.583713         0.085952
 H         1.980565         1.345449        -2.327120
 H         3.416724        -0.434632        -1.204432
