19
Iteration:  1395
 C         0.056143        -0.308461        -0.628347
 C         1.464710         0.213739        -0.244043
 C         1.785193         0.725347         1.140792
 C         3.311646         0.802707         0.698976
 O         4.407822         0.108229         1.477802
 C         3.524216         2.296909         0.120661
 O         2.336587         2.459318        -0.585586
 C         2.058913         1.192069        -1.134531
 C         3.040263         0.088069        -0.556241
 H        -0.093480        -1.373552        -0.365937
 H        -0.835024         0.244858        -0.165343
 H         0.009091        -0.313704        -1.691942
 H         1.344025         1.699174         1.450637
 H         1.684379        -0.141384         1.813835
 H         4.889006         0.758516         2.046060
 H         3.566644         3.176646         0.827432
 H         4.472409         2.293427        -0.542403
 H         1.862978         1.056843        -2.180397
 H         3.671151        -0.536581        -1.290427
