19
Iteration:  3189charge 0 multiplicity 1
 C         0.152701        -0.632685        -0.448437
 C         1.351235         0.314748        -0.268059
 C         1.791248         0.545588         1.173957
 C         3.258849         0.746429         0.649142
 O         4.332223         0.113491         1.355921
 C         3.499965         2.367401         0.375766
 O         2.688936         2.596907        -0.774611
 C         2.045456         1.367391        -1.178551
 C         2.820436         0.221919        -0.676590
 H         0.478343        -1.553240         0.190928
 H        -0.877109        -0.374260        -0.115765
 H         0.227645        -0.948500        -1.481672
 H         1.257580         1.434178         1.753301
 H         1.853481        -0.364143         1.774524
 H         4.231109         0.741883         2.165746
 H         3.206586         3.110280         1.097557
 H         4.622300         2.533735         0.086367
 H         1.579439         1.504924        -2.128694
 H         3.426250        -0.539752        -1.245873
