19
Iteration:  1924charge 0 multiplicity 1
 C         0.182229        -0.543227        -0.442248
 C         1.343215         0.342174        -0.259814
 C         1.863784         0.678208         1.184966
 C         3.342750         0.786852         0.655826
 O         4.369759         0.213872         1.436076
 C         3.446279         2.276368         0.374072
 O         2.582846         2.529986        -0.803363
 C         2.042876         1.292221        -1.197676
 C         2.869169         0.148520        -0.714979
 H         0.265685        -1.469537         0.086151
 H        -0.654672        -0.084012         0.069522
 H        -0.257159        -0.708207        -1.401986
 H         1.373038         1.543410         1.713083
 H         1.736713        -0.163050         1.876588
 H         4.228569        -0.711533         1.562801
 H         3.078768         2.843639         1.234036
 H         4.417907         2.533098        -0.023658
 H         1.602014         1.242659        -2.196356
 H         3.272310        -0.612156        -1.317007
