19
Iteration:  4284
 C         0.064838        -0.440294        -0.863683
 C         1.400756         0.196071        -0.213691
 C         1.890754         0.540196         1.170879
 C         3.309775         0.776788         0.635143
 O         4.512113         0.354041         1.572925
 C         3.559337         2.245342         0.227504
 O         2.395418         2.558626        -0.527512
 C         2.031384         1.260720        -1.115038
 C         2.842456         0.120090        -0.614575
 H        -0.045599        -1.540715        -0.764235
 H        -0.890907         0.063511        -0.545570
 H         0.094820        -0.174988        -1.953995
 H         1.349118         1.408119         1.613061
 H         1.882315        -0.309918         1.908868
 H         3.936107        -0.340123         2.006439
 H         3.634553         2.835210         1.125937
 H         4.460501         2.420256        -0.395053
 H         1.841842         1.237231        -2.166540
 H         3.408685        -0.501072        -1.324713
