19
Iteration:  2269
 C         0.154201        -0.458933        -0.740104
 C         1.352650         0.334774        -0.201685
 C         1.885870         0.725656         1.354578
 C         3.289462         0.831689         0.641491
 O         4.407629         0.326569         1.329345
 C         3.579047         2.213179         0.127850
 O         2.411289         2.439892        -0.503413
 C         2.054428         1.235749        -1.121475
 C         2.876749         0.053821        -0.604623
 H         0.203781        -1.482737        -0.267990
 H        -0.900763        -0.125564        -0.480145
 H         0.126206        -0.508098        -1.889136
 H         1.434211         1.658379         1.710463
 H         1.916587        -0.237456         1.919274
 H         4.153833        -0.338234         1.997535
 H         3.745591         2.882027         0.951050
 H         4.387423         2.393048        -0.549633
 H         1.712762         1.310633        -2.162573
 H         3.188891        -0.958073        -0.975434
