19
Iteration:  1017charge 0 multiplicity 1
 C         0.062798        -0.459281        -0.366229
 C         1.304809         0.390832        -0.160882
 C         1.883904         0.610987         1.314576
 C         3.198418         0.835561         0.659851
 O         4.270150         0.232820         1.453721
 C         3.503495         2.253488         0.304393
 O         2.780628         2.477125        -1.021956
 C         2.092173         1.243023        -1.223185
 C         2.810765         0.106728        -0.622559
 H        -0.004400        -1.395279         0.246277
 H        -0.750471         0.173477        -0.183478
 H        -0.101226        -0.906017        -1.387865
 H         1.564727         1.407494         2.026728
 H         1.998998        -0.441984         1.691376
 H         5.042814         0.289775         0.909260
 H         3.276041         2.970761         1.087473
 H         4.540906         2.334180         0.050836
 H         1.627230         1.319682        -2.254195
 H         3.097858        -0.802133        -1.037679
