19
Iteration:  2675
 C         0.053410        -0.425748        -0.598817
 C         1.473036         0.180888        -0.186302
 C         1.913487         0.664809         1.129213
 C         3.339435         0.789724         0.651878
 O         4.300428         0.375189         1.516604
 C         3.604332         2.218961         0.187699
 O         2.414622         2.520033        -0.595398
 C         2.057707         1.192012        -1.211699
 C         2.899584         0.107051        -0.669701
 H        -0.092485        -1.448924        -0.164610
 H        -0.532395         0.232183         0.099811
 H        -0.288837        -0.337329        -1.637753
 H         1.597751         1.533187         1.622141
 H         2.019907        -0.048960         1.966827
 H         4.040434        -0.589384         1.492266
 H         3.619441         2.915117         1.035459
 H         4.525025         2.225823        -0.335167
 H         1.648890         1.286554        -2.181888
 H         3.309006        -0.736836        -1.323759
