19
Iteration:  2870charge 0 multiplicity 1
 C         0.166036        -0.521717        -0.560111
 C         1.328684         0.367688        -0.201445
 C         1.854268         0.523774         1.202760
 C         3.292355         0.785601         0.712493
 O         4.376559         0.341338         1.430041
 C         3.544487         2.190940         0.222490
 O         2.601128         2.562177        -0.722875
 C         2.037370         1.297313        -1.195411
 C         2.762983         0.117978        -0.648587
 H         0.246644        -1.572967        -0.007868
 H        -0.740701         0.012909        -0.257615
 H         0.058487        -0.671739        -1.698551
 H         1.316697         1.338587         1.781171
 H         1.743699        -0.433992         1.735709
 H         4.185168        -0.311021         2.160295
 H         3.521678         3.011762         0.955616
 H         4.651202         2.225760        -0.116289
 H         1.575063         1.563906        -2.169309
 H         3.347778        -0.667121        -1.152049
