19
Iteration:  3796charge 0 multiplicity 1
 C         0.206867        -0.563470        -0.702918
 C         1.369339         0.253209        -0.228735
 C         1.676109         0.659401         1.323538
 C         3.194694         0.780820         0.754689
 O         4.393850         0.334948         1.348950
 C         3.460757         2.224125         0.345813
 O         2.624037         2.589415        -0.711012
 C         2.106829         1.256933        -1.188455
 C         2.872455         0.151572        -0.639283
 H         0.153719        -1.559740        -0.198979
 H        -0.722365        -0.114143        -0.693460
 H         0.352121        -0.668992        -1.800782
 H         1.394942         1.503026         1.881353
 H         1.693116        -0.209276         1.999741
 H         4.328580        -0.566733         1.679684
 H         3.450948         2.829208         1.320292
 H         4.526631         2.303310        -0.096604
 H         1.763517         1.237061        -2.235916
 H         3.507675        -0.600647        -1.103721
