19
Iteration:  1226
 C         0.109527        -0.432809        -0.559368
 C         1.384991         0.282833        -0.224083
 C         1.823726         0.572387         1.249016
 C         3.324192         0.684865         0.737296
 O         4.337629         0.405447         1.612195
 C         3.580906         2.122819         0.112305
 O         2.551175         2.554871        -0.721995
 C         1.990366         1.312740        -1.180828
 C         2.841722         0.092801        -0.682071
 H         0.072749        -1.560755        -0.340119
 H        -0.711526         0.198367        -0.124102
 H        -0.063097        -0.457072        -1.749347
 H         1.328226         1.488042         1.621730
 H         1.803717        -0.285911         1.927218
 H         5.212447         0.180012         1.141487
 H         3.771245         2.928007         0.845622
 H         4.587743         1.894371        -0.467401
 H         1.459092         1.489780        -2.120045
 H         3.030839        -0.779711        -1.456915
