19
Iteration:  2692
 C         0.058270        -0.327463        -0.454712
 C         1.444486         0.231491        -0.324508
 C         1.828805         0.703661         1.115050
 C         3.388248         0.771653         0.646178
 O         4.386972         0.295287         1.524941
 C         3.539974         2.306452         0.194246
 O         2.346060         2.439086        -0.558333
 C         2.103458         1.174407        -1.179203
 C         2.965794         0.016933        -0.723810
 H        -0.010386        -1.368623        -0.124070
 H        -0.765932         0.291800        -0.053647
 H        -0.114027        -0.305227        -1.555191
 H         1.282543         1.722190         1.303425
 H         1.672662        -0.145831         1.785075
 H         4.183057        -0.606291         1.873480
 H         3.472641         2.985794         1.048216
 H         4.370473         2.535036        -0.604565
 H         1.889771         1.270187        -2.281223
 H         3.722944        -0.575084        -1.192925
