19
Iteration:  3619charge 0 multiplicity 1
 C         0.255015        -0.576601        -0.528564
 C         1.402971         0.311991        -0.289812
 C         1.720598         0.545585         1.189416
 C         3.139563         0.822401         0.699790
 O         4.393196         0.307888         1.356084
 C         3.456213         2.240966         0.436379
 O         2.670668         2.575441        -0.748449
 C         2.060054         1.333641        -1.175082
 C         2.868082         0.173211        -0.641508
 H         0.179529        -1.593072         0.049019
 H        -0.665158        -0.039926        -0.429448
 H         0.242694        -0.996219        -1.552834
 H         1.183503         1.243538         1.774847
 H         1.588299        -0.430818         1.617841
 H         4.394788        -0.620725         1.204676
 H         3.209162         3.023176         1.265268
 H         4.571621         2.376880         0.248948
 H         1.583790         1.536394        -2.173804
 H         3.246791        -0.750624        -1.081348
