19
Iteration:  3433
 C         0.206035        -0.532391        -0.701206
 C         1.391378         0.296698        -0.226814
 C         1.825762         0.624258         1.173193
 C         3.329586         0.805963         0.686739
 O         4.399724         0.263243         1.420013
 C         3.542440         2.200668         0.311924
 O         2.436864         2.553389        -0.504998
 C         2.041682         1.304662        -1.215049
 C         2.835644         0.102598        -0.735286
 H         0.368599        -1.630791        -0.283396
 H        -0.672033        -0.092428        -0.326179
 H         0.209460        -0.661666        -1.786334
 H         1.213404         1.433275         1.691178
 H         1.762444        -0.343467         1.816336
 H         3.992297         0.486957         2.238604
 H         3.587562         2.861484         1.242706
 H         4.466902         2.540251        -0.342683
 H         1.591626         1.472812        -2.176056
 H         3.404685        -0.678372        -1.298072
