19
Iteration:  1937
 C         0.069549        -0.480553        -0.443454
 C         1.452598         0.267285        -0.215262
 C         1.880737         0.700097         1.139222
 C         3.316569         0.761983         0.668843
 O         4.395800         0.220292         1.453260
 C         3.472627         2.242564         0.264000
 O         2.467837         2.551795        -0.739453
 C         2.010732         1.208878        -1.208312
 C         2.917880         0.149000        -0.627139
 H         0.157873        -1.472054        -0.193569
 H        -0.642086         0.088691         0.057033
 H        -0.052321        -0.304622        -1.545987
 H         1.540574         1.690032         1.458769
 H         1.637150        -0.164129         1.811857
 H         4.209442        -0.776897         1.349883
 H         3.237284         2.849420         1.102246
 H         4.457960         2.636387         0.177323
 H         1.937696         1.227157        -2.316929
 H         3.629695        -0.236487        -1.319571
