19
Iteration:  4933
 C         0.270606        -0.633301        -0.735956
 C         1.291916         0.308845        -0.108892
 C         1.871065         0.565017         1.276293
 C         3.246238         0.840136         0.752651
 O         4.331321         0.162572         1.388152
 C         3.458432         2.333475         0.387485
 O         2.710097         2.544449        -0.844667
 C         2.029534         1.363434        -1.166899
 C         2.762619         0.227954        -0.613604
 H         0.398061        -1.730917        -0.387498
 H        -0.751339        -0.246302        -0.563045
 H         0.463225        -0.635073        -1.825723
 H         1.398939         1.529957         1.614186
 H         1.924612        -0.323692         1.886618
 H         3.916263        -0.566839         1.908218
 H         2.960649         2.872065         1.276978
 H         4.426278         2.844627         0.289738
 H         1.582625         1.487153        -2.172968
 H         3.239375        -0.523199        -1.282133
