19
Iteration:  1417
 C         0.073179        -0.426694        -0.569866
 C         1.446977         0.242033        -0.273743
 C         1.844857         0.637450         1.232357
 C         3.251952         0.833391         0.689046
 O         4.279113         0.225283         1.483725
 C         3.598419         2.225273         0.265501
 O         2.466142         2.498255        -0.660426
 C         2.106963         1.264815        -1.253602
 C         2.917018         0.110572        -0.656537
 H        -0.045032        -1.469256        -0.194749
 H        -0.674065         0.100897         0.104192
 H        -0.267031        -0.453984        -1.572658
 H         1.322394         1.546743         1.518602
 H         1.676582        -0.226687         1.858928
 H         5.094528         0.730472         1.312310
 H         3.549316         2.942521         1.125715
 H         4.646497         2.219007        -0.171289
 H         1.720247         1.170022        -2.236361
 H         3.554836        -0.699466        -1.176895
