19
Iteration:  3547charge 0 multiplicity 1
 C         0.224972        -0.501575        -0.740924
 C         1.473591         0.245815        -0.129335
 C         1.805433         0.562760         1.199453
 C         3.286240         0.779407         0.644128
 O         4.300057         0.341347         1.391334
 C         3.562017         2.154626         0.224459
 O         2.412164         2.594121        -0.537365
 C         2.044393         1.290479        -1.117779
 C         2.917355         0.143896        -0.658036
 H         0.099837        -1.533609        -0.589396
 H        -0.744266         0.026707        -0.345322
 H         0.122660        -0.359589        -1.891854
 H         1.278478         1.355194         1.829903
 H         1.905234        -0.374803         1.839710
 H         4.110116         0.130542         2.297283
 H         3.871150         2.862328         0.942459
 H         4.459368         2.261570        -0.552114
 H         1.631202         1.305369        -2.117069
 H         3.479468        -0.658031        -1.199283
