19
Iteration:  1889
 C         0.182051        -0.682360        -0.541251
 C         1.307759         0.385810        -0.181037
 C         1.779244         0.537336         1.295374
 C         3.174424         0.793096         0.651545
 O         4.384026         0.294585         1.350796
 C         3.565791         2.192178         0.302679
 O         2.690677         2.593063        -0.868778
 C         2.035833         1.381031        -1.133487
 C         2.749861         0.243399        -0.599807
 H         0.365683        -1.504146         0.145790
 H        -0.747772        -0.101565        -0.346687
 H         0.308396        -1.100232        -1.521672
 H         1.402081         1.272608         2.059515
 H         2.094614        -0.385998         1.732537
 H         4.099918        -0.342188         1.990861
 H         3.642503         2.994105         1.105819
 H         4.621129         2.134388        -0.081373
 H         1.698027         1.293863        -2.149040
 H         3.159756        -0.572406        -1.250711
