19
Iteration:  4653charge 0 multiplicity 1
 C         0.200296        -0.545382        -0.637862
 C         1.376720         0.289011        -0.220152
 C         1.812356         0.509686         1.320830
 C         3.229463         0.869411         0.747520
 O         4.301067         0.239047         1.332031
 C         3.417521         2.332165         0.388868
 O         2.689658         2.525171        -0.745051
 C         2.079817         1.313821        -1.206122
 C         2.868759         0.209029        -0.655404
 H         0.197548        -1.537095        -0.076137
 H        -0.772188         0.084093        -0.669092
 H         0.304477        -0.788730        -1.688537
 H         1.112330         1.159990         1.808377
 H         1.905659        -0.533299         1.811929
 H         4.056845        -0.731946         1.497362
 H         3.171792         3.065147         1.156016
 H         4.510600         2.488035         0.319817
 H         1.861915         1.506846        -2.212407
 H         3.364685        -0.581688        -1.257031
