19
Iteration:  2164
 C         0.119442        -0.501052        -0.495477
 C         1.406077         0.260657        -0.188050
 C         1.817306         0.644351         1.216992
 C         3.337022         0.805638         0.649141
 O         4.438542         0.214269         1.313291
 C         3.459636         2.258570         0.346501
 O         2.554190         2.560765        -0.735231
 C         2.041430         1.294179        -1.190719
 C         2.883657         0.136374        -0.659543
 H         0.138793        -1.556917        -0.117878
 H        -0.697082         0.074073        -0.015070
 H         0.049120        -0.606899        -1.577027
 H         1.212680         1.495411         1.573101
 H         1.549990        -0.153337         1.882204
 H         4.090933        -0.354110         2.052891
 H         2.941741         2.711189         1.241945
 H         4.476454         2.720123         0.047798
 H         1.653701         1.244247        -2.197103
 H         3.316513        -0.672443        -1.357931
