19
Iteration:  4666charge 0 multiplicity 1
 C         0.196390        -0.497375        -0.756802
 C         1.325365         0.330238        -0.169139
 C         1.875874         0.505530         1.220901
 C         3.271204         0.802529         0.673328
 O         4.334994         0.260710         1.454317
 C         3.498324         2.348994         0.437887
 O         2.609040         2.570715        -0.814835
 C         2.060343         1.292115        -1.090234
 C         2.803924         0.106230        -0.648977
 H         0.003912        -1.359453        -0.165676
 H        -0.849343        -0.029622        -0.623270
 H         0.466389        -0.860000        -1.783785
 H         1.561328         1.207647         1.966637
 H         1.984781        -0.477411         1.775081
 H         4.107166        -0.648227         1.513226
 H         3.041359         2.912019         1.245574
 H         4.473404         2.652058         0.137050
 H         1.543113         1.179157        -2.063176
 H         3.568692        -0.445362        -1.302162
