19
Iteration:  1677charge 0 multiplicity 1
 C         0.115377        -0.517636        -0.549563
 C         1.392377         0.292952        -0.279779
 C         1.894972         0.632641         1.092853
 C         3.425494         0.775372         0.629084
 O         4.212267         0.345604         1.647905
 C         3.676673         2.119635         0.151489
 O         2.439644         2.580151        -0.478810
 C         1.979583         1.320529        -1.202608
 C         2.830319         0.053221        -0.774443
 H         0.042018        -1.387777         0.087207
 H        -0.751195         0.049500        -0.524115
 H         0.115556        -0.902749        -1.522728
 H         1.326453         1.542108         1.463767
 H         1.971140        -0.323705         1.578180
 H         5.141823         0.462531         1.461014
 H         3.733887         2.723511         1.060361
 H         4.605593         2.279215        -0.480502
 H         1.672251         1.479723        -2.275979
 H         3.303584        -0.768077        -1.405591
