19
Iteration:  3918charge 0 multiplicity 1
 C         0.272506        -0.595283        -0.742219
 C         1.292989         0.236613        -0.146887
 C         1.765756         0.612885         1.304283
 C         3.232526         0.834019         0.792314
 O         4.405018         0.269865         1.388265
 C         3.526444         2.350659         0.413353
 O         2.687555         2.524089        -0.888155
 C         2.024823         1.308597        -1.132875
 C         2.723134         0.170625        -0.615923
 H         0.280982        -1.625659        -0.380278
 H        -0.755711        -0.240188        -0.599695
 H         0.408756        -0.621604        -1.860902
 H         1.231977         1.425684         1.792992
 H         1.673446        -0.345587         1.909395
 H         4.422962        -0.672140         1.354383
 H         3.182856         3.030338         1.221551
 H         4.635025         2.587932         0.314166
 H         1.627163         1.549204        -2.140113
 H         3.138258        -0.718139        -1.143432
