19
Iteration:   544
 C        -0.080756        -0.299353        -0.344896
 C         1.334358         0.339570        -0.128030
 C         1.815977         0.842263         1.205400
 C         3.394784         0.844042         0.605621
 O         4.356631         0.316157         1.503456
 C         3.733275         2.201576        -0.048906
 O         2.595294         2.374705        -0.772854
 C         2.095337         1.102355        -1.207400
 C         2.766961        -0.033181        -0.564598
 H        -0.231729        -1.001079         0.545323
 H        -0.835024         0.491582        -0.162280
 H        -0.257382        -0.904610        -1.251340
 H         1.386828         1.805498         1.518548
 H         1.849428         0.084151         2.021459
 H         4.079571        -0.599217         1.586022
 H         3.899211         3.011639         0.678445
 H         4.560689         2.107752        -0.698607
 H         1.773464         1.024815        -2.193038
 H         3.210738        -0.957499        -1.006696
