19
Iteration:   121charge 0 multiplicity 1
 C         0.058516        -0.160705        -0.258828
 C         1.401017         0.335907        -0.033557
 C         1.862095         0.978192         1.310935
 C         3.227966         0.762379         0.638946
 O         4.352639         0.345168         1.411647
 C         3.745440         1.947600        -0.105614
 O         2.664116         2.348420        -0.891890
 C         2.001996         1.097345        -1.176357
 C         2.637552        -0.106369        -0.628259
 H        -0.131606        -1.149803         0.152756
 H        -0.696786         0.382030         0.324261
 H        -0.114361        -0.135561        -1.339066
 H         1.563666         2.083181         1.555499
 H         1.695223         0.258595         2.168825
 H         4.489425         1.043727         2.121515
 H         4.073580         2.716019         0.586101
 H         4.576279         1.460179        -0.677266
 H         1.452292         1.106925        -2.191774
 H         2.992757        -1.042448        -1.057780
