19
Iteration:  3366charge 0 multiplicity 1
 C         0.267276        -0.517246        -0.571420
 C         1.415080         0.302658        -0.234050
 C         1.816718         0.617389         1.193386
 C         3.295761         0.812376         0.647376
 O         4.288216         0.215346         1.441742
 C         3.422483         2.289775         0.366259
 O         2.506528         2.558646        -0.648898
 C         2.096000         1.285582        -1.192842
 C         2.858056         0.175342        -0.682926
 H         0.353943        -1.617756        -0.242589
 H        -0.681111        -0.177581        -0.199698
 H         0.240761        -0.782156        -1.584874
 H         1.276518         1.530694         1.633944
 H         1.738361        -0.323502         1.798762
 H         4.781635        -0.435889         0.859376
 H         3.238592         2.785067         1.334770
 H         4.506779         2.312189        -0.019932
 H         1.775550         1.335982        -2.242897
 H         3.371861        -0.509460        -1.389377
