19
Iteration:  4582
 C         0.217431        -0.481485        -0.705649
 C         1.486032         0.185334        -0.213145
 C         1.810092         0.581263         1.164001
 C         3.296592         0.820056         0.676089
 O         4.231439         0.278828         1.555831
 C         3.588553         2.222623         0.154632
 O         2.456875         2.598913        -0.550346
 C         1.992851         1.303912        -1.072870
 C         2.932604         0.138966        -0.722460
 H         0.388236        -1.585354        -0.524933
 H        -0.643754        -0.111728        -0.198823
 H         0.064613        -0.335445        -1.823575
 H         1.406148         1.526532         1.640080
 H         1.785354        -0.223025         1.872553
 H         3.869226        -0.628546         1.799502
 H         3.839254         2.992089         0.920695
 H         4.501662         2.267601        -0.494971
 H         1.722648         1.262925        -2.166616
 H         3.538351        -0.368223        -1.530124
