19
Iteration:  1732charge 0 multiplicity 1
 C         0.201516        -0.487218        -0.618956
 C         1.349703         0.303361        -0.137638
 C         1.850313         0.631590         1.294772
 C         3.268313         0.858872         0.752222
 O         4.311912         0.160372         1.224181
 C         3.467575         2.368182         0.305343
 O         2.589570         2.490704        -0.782338
 C         2.128128         1.219415        -1.203474
 C         2.824699         0.110385        -0.580015
 H         0.026074        -1.448845        -0.140548
 H        -0.633297         0.082104        -0.302335
 H         0.010211        -0.555517        -1.644986
 H         1.386643         1.431110         1.849737
 H         1.699176        -0.208782         1.963424
 H         4.507092         0.418088         2.172193
 H         3.193155         3.035243         1.107326
 H         4.536228         2.461203         0.175999
 H         1.745391         1.107538        -2.214291
 H         3.404641        -0.714752        -0.861091
