19
Iteration:  3077charge 0 multiplicity 1
 C         0.145376        -0.584295        -0.424485
 C         1.305918         0.404399        -0.272590
 C         1.880903         0.595635         1.141203
 C         3.278040         0.725232         0.661184
 O         4.323813         0.168203         1.471164
 C         3.519341         2.293493         0.323296
 O         2.577472         2.560959        -0.737379
 C         2.099873         1.327500        -1.290159
 C         2.853046         0.149428        -0.696169
 H         0.129681        -1.424931         0.276706
 H        -0.863766        -0.005456        -0.337533
 H        -0.015853        -0.977004        -1.511387
 H         1.494687         1.372177         1.921494
 H         1.679035        -0.366874         1.694784
 H         4.734444         0.918558         1.879355
 H         3.203645         2.843109         1.222070
 H         4.619271         2.589475         0.163849
 H         1.650954         1.253121        -2.305803
 H         3.338688        -0.723756        -1.123566
