19
Iteration:  1329charge 0 multiplicity 1
 C         0.126711        -0.650661        -0.430704
 C         1.306185         0.326125        -0.229903
 C         1.812798         0.568878         1.235868
 C         3.248575         0.820690         0.729075
 O         4.359044         0.252016         1.480403
 C         3.529382         2.286931         0.274857
 O         2.732990         2.625145        -0.859587
 C         2.098477         1.365784        -1.199361
 C         2.712745         0.141230        -0.678404
 H         0.073806        -1.411192         0.372718
 H        -0.863311        -0.122499        -0.585405
 H         0.346449        -1.090840        -1.384917
 H         1.101756         1.240930         1.853339
 H         1.608207        -0.484305         1.659249
 H         4.709892        -0.383845         0.861447
 H         3.262004         2.942837         1.145548
 H         4.666988         2.329723         0.134369
 H         1.907138         1.489104        -2.275444
 H         3.080753        -0.756144        -1.195769
