19
Iteration:  4108
 C         0.115854        -0.412077        -0.586619
 C         1.392019         0.292889        -0.278192
 C         1.866177         0.490878         1.150464
 C         3.330301         0.783565         0.714437
 O         4.349165         0.217832         1.523905
 C         3.468444         2.346140         0.269392
 O         2.411332         2.580409        -0.698492
 C         2.092706         1.243568        -1.190475
 C         3.026964         0.143347        -0.679627
 H         0.112959        -1.428908        -0.200175
 H        -0.810291         0.087387        -0.103229
 H         0.020040        -0.475897        -1.671039
 H         1.428661         1.329985         1.733154
 H         1.904995        -0.494959         1.764332
 H         4.094085        -0.634324         1.973720
 H         3.163805         3.045991         1.042704
 H         4.556611         2.466357         0.020069
 H         1.772242         1.335153        -2.260438
 H         3.460474        -0.573817        -1.362364
