19
Iteration:  2169charge 0 multiplicity 1
 C         0.122050        -0.500735        -0.428133
 C         1.411495         0.251962        -0.183725
 C         1.796202         0.664054         1.216636
 C         3.362187         0.793605         0.635101
 O         4.441167         0.176831         1.332953
 C         3.389199         2.249396         0.360868
 O         2.565083         2.566400        -0.753971
 C         2.043001         1.302836        -1.230415
 C         2.906028         0.185330        -0.688206
 H         0.108013        -1.536613        -0.116107
 H        -0.738805         0.057300        -0.054767
 H         0.097543        -0.736806        -1.549723
 H         1.266938         1.563526         1.580393
 H         1.443014        -0.247491         1.808055
 H         4.250539        -0.464572         1.998784
 H         3.046937         2.846011         1.213492
 H         4.343500         2.664527         0.222929
 H         1.836767         1.250249        -2.322760
 H         3.273839        -0.558769        -1.301101
