19
Iteration:  1635charge 0 multiplicity 1
 C         0.213079        -0.547369        -0.615821
 C         1.332116         0.278182        -0.179157
 C         1.796211         0.645427         1.240534
 C         3.265968         0.824282         0.740939
 O         4.362259         0.096211         1.462520
 C         3.503060         2.352682         0.276991
 O         2.576414         2.587665        -0.813240
 C         2.002405         1.239560        -1.199898
 C         2.895984         0.245010        -0.562153
 H         0.129462        -1.542900        -0.125871
 H        -0.729199         0.073474        -0.425807
 H         0.200631        -0.681600        -1.668437
 H         1.313191         1.505842         1.892462
 H         1.644298        -0.306457         1.826015
 H         4.810433        -0.264831         0.633055
 H         3.393022         2.978515         1.216412
 H         4.573104         2.407227        -0.014011
 H         1.533929         1.154134        -2.222060
 H         3.386371        -0.632116        -0.978528
