19
Iteration:  2359
 C         0.103221        -0.463008        -0.578661
 C         1.363362         0.285346        -0.163978
 C         1.785096         0.572608         1.258750
 C         3.316776         0.740638         0.720173
 O         4.483060         0.344503         1.351574
 C         3.471271         2.257624         0.349289
 O         2.562747         2.538276        -0.798595
 C         1.988833         1.266365        -1.190520
 C         2.908069         0.123503        -0.677927
 H         0.101767        -1.522508        -0.068948
 H        -0.817454         0.166195        -0.223899
 H         0.154740        -0.492199        -1.653076
 H         1.333253         1.542092         1.686912
 H         1.654740        -0.295753         1.977847
 H         4.431106        -0.625641         1.616175
 H         3.259639         2.789560         1.245042
 H         4.504526         2.381279         0.162284
 H         1.379961         1.363983        -2.111164
 H         3.412642        -0.737984        -1.156291
