19
Iteration:   625charge 0 multiplicity 1
 C        -0.070153        -0.353236        -0.370123
 C         1.339159         0.430564        -0.076778
 C         1.822402         0.859564         1.340883
 C         3.366560         0.783339         0.717892
 O         4.339977         0.139471         1.410388
 C         3.593095         2.299830         0.103954
 O         2.638644         2.389464        -0.996673
 C         2.120532         1.110692        -1.235429
 C         2.822074         0.004620        -0.496493
 H        -0.284858        -1.188200         0.280749
 H        -0.944106         0.286842        -0.375024
 H        -0.214720        -0.830531        -1.384663
 H         1.486926         1.870257         1.775937
 H         1.504636         0.029571         2.021470
 H         5.077085         0.087678         0.781080
 H         3.399066         3.134541         0.750599
 H         4.657556         2.546333        -0.196505
 H         1.720519         0.835366        -2.253175
 H         3.399600        -0.784146        -0.893972
