19
Iteration:  1410
 C         0.086114        -0.404273        -0.568649
 C         1.377431         0.216027        -0.248612
 C         1.816020         0.660861         1.182475
 C         3.333281         0.848275         0.754497
 O         4.312299         0.187222         1.473114
 C         3.563341         2.213631         0.244022
 O         2.413142         2.477112        -0.643714
 C         2.142348         1.192181        -1.243042
 C         2.946730         0.168738        -0.682727
 H        -0.153202        -1.428476        -0.271878
 H        -0.592762         0.249854         0.024554
 H        -0.205848        -0.297300        -1.650901
 H         1.204613         1.601231         1.531260
 H         1.684598        -0.141011         2.055860
 H         5.043405         0.775206         1.488049
 H         3.670776         2.984945         1.019758
 H         4.497017         2.175168        -0.375203
 H         1.830019         1.310400        -2.310344
 H         3.605543        -0.532447        -1.097501
