19
Iteration:  2898
 C         0.157726        -0.577489        -0.635361
 C         1.271453         0.304295        -0.098915
 C         1.772374         0.645048         1.350826
 C         3.283173         0.812156         0.747925
 O         4.439766         0.267236         1.289999
 C         3.471360         2.323015         0.303618
 O         2.720703         2.500093        -0.791091
 C         2.028940         1.284168        -1.169872
 C         2.762170         0.141209        -0.624167
 H         0.059923        -1.527515        -0.280995
 H        -0.775511         0.041917        -0.674428
 H         0.398927        -0.756582        -1.668478
 H         1.317181         1.548865         1.741795
 H         1.699954        -0.242929         2.016126
 H         4.490096        -0.705482         1.434472
 H         3.113072         3.060374         1.064441
 H         4.519420         2.534644         0.199955
 H         1.789053         1.412218        -2.230276
 H         3.240017        -0.743265        -1.139413
