19
Iteration:  3441
 C         0.181844        -0.563573        -0.645370
 C         1.376632         0.294121        -0.260527
 C         1.809847         0.612240         1.159655
 C         3.348960         0.775905         0.654036
 O         4.395208         0.204815         1.430767
 C         3.531073         2.293677         0.332292
 O         2.408775         2.548566        -0.550971
 C         2.104036         1.339142        -1.181103
 C         2.860641         0.140092        -0.733752
 H         0.119932        -1.611463        -0.233070
 H        -0.830842        -0.145706        -0.331173
 H         0.198514        -0.740096        -1.715639
 H         1.404215         1.474988         1.699401
 H         1.914356        -0.241884         1.780109
 H         4.240871         0.415621         2.354634
 H         3.211104         3.004362         1.167170
 H         4.513735         2.419721        -0.106320
 H         1.927926         1.411874        -2.253468
 H         3.260018        -0.657632        -1.404584
