19
Iteration:  2065
 C         0.200646        -0.569995        -0.406943
 C         1.400706         0.289800        -0.253492
 C         1.818549         0.688421         1.121237
 C         3.313938         0.850915         0.687352
 O         4.368190         0.115665         1.354841
 C         3.505069         2.315670         0.351117
 O         2.492154         2.582175        -0.711416
 C         2.079023         1.272757        -1.160604
 C         2.880344         0.151713        -0.684678
 H         0.235730        -1.339384         0.400268
 H        -0.749232         0.019632        -0.210172
 H         0.164592        -0.783889        -1.455108
 H         1.414989         1.639944         1.506076
 H         1.612586        -0.019394         1.874322
 H         4.142185        -0.794359         1.168399
 H         3.050329         2.904493         1.132145
 H         4.426751         2.509145        -0.019057
 H         1.656178         1.367930        -2.212424
 H         3.286914        -0.575787        -1.392911
