19
Iteration:  3432
 C         0.215424        -0.530409        -0.709693
 C         1.394902         0.294001        -0.230611
 C         1.830954         0.622647         1.179987
 C         3.322144         0.807929         0.683641
 O         4.397818         0.272116         1.419256
 C         3.545237         2.192133         0.303958
 O         2.440261         2.552967        -0.501333
 C         2.031081         1.298133        -1.214227
 C         2.832176         0.102974        -0.729582
 H         0.403466        -1.622098        -0.274232
 H        -0.686934        -0.071398        -0.330831
 H         0.196318        -0.621631        -1.787056
 H         1.205992         1.420627         1.685877
 H         1.725476        -0.326887         1.800621
 H         3.991509         0.477688         2.258481
 H         3.656803         2.848261         1.270753
 H         4.452292         2.527586        -0.338681
 H         1.537614         1.482170        -2.152684
 H         3.426003        -0.681073        -1.282811
