19
Iteration:  3933
 C         0.262051        -0.576388        -0.672439
 C         1.437221         0.308613        -0.150975
 C         1.710064         0.517037         1.320695
 C         3.205939         0.826002         0.731872
 O         4.340211         0.266365         1.422939
 C         3.420761         2.278224         0.307253
 O         2.726773         2.587331        -0.804744
 C         2.010667         1.330948        -1.148548
 C         2.855783         0.169691        -0.670335
 H         0.372366        -1.537762        -0.172125
 H        -0.768006        -0.060050        -0.460669
 H         0.312322        -0.649579        -1.734552
 H         1.177386         1.326221         1.809502
 H         1.708039        -0.313780         1.998889
 H         4.046907        -0.662897         1.361878
 H         3.206355         3.112657         0.977975
 H         4.543202         2.283442        -0.140756
 H         1.418183         1.304455        -2.040446
 H         3.468860        -0.618679        -1.164726
