19
Iteration:  3059
 C         0.189372        -0.574572        -0.474433
 C         1.349073         0.298435        -0.211019
 C         1.747886         0.639167         1.242886
 C         3.280860         0.810482         0.726472
 O         4.348954         0.077496         1.313331
 C         3.425114         2.348343         0.363435
 O         2.703786         2.614644        -0.863620
 C         2.056793         1.292361        -1.152978
 C         2.828455         0.137452        -0.680899
 H         0.514675        -1.471930         0.135898
 H        -0.730464        -0.116136        -0.243651
 H         0.098972        -0.988582        -1.427928
 H         1.236914         1.494561         1.655010
 H         1.549850        -0.195770         1.872570
 H         4.513060         0.607796         2.082842
 H         3.137894         3.000567         1.206024
 H         4.480107         2.543394         0.246693
 H         1.842407         1.338448        -2.224035
 H         3.365401        -0.626171        -1.337299
