19
Iteration:  2089
 C         0.137008        -0.572627        -0.571471
 C         1.360141         0.250600        -0.197120
 C         1.877802         0.674453         1.218705
 C         3.295266         0.814599         0.590075
 O         4.324911         0.345325         1.446766
 C         3.653971         2.184215         0.239801
 O         2.465273         2.518256        -0.578086
 C         2.070923         1.300689        -1.185003
 C         2.798452         0.156540        -0.716166
 H         0.176590        -1.494829        -0.006823
 H        -0.711960        -0.046715        -0.118705
 H        -0.047232        -0.597140        -1.702611
 H         1.482476         1.546233         1.755213
 H         1.972039        -0.115442         1.982047
 H         4.498542        -0.594486         1.312860
 H         3.538835         2.822267         1.108329
 H         4.506907         2.223233        -0.350929
 H         1.591566         1.426249        -2.151088
 H         3.403099        -0.598195        -1.333382
