19
Iteration:  2577charge 0 multiplicity 1
 C         0.083967        -0.507426        -0.473429
 C         1.378819         0.259234        -0.225938
 C         1.888508         0.646117         1.151017
 C         3.330927         0.794759         0.673267
 O         4.383570         0.196094         1.465056
 C         3.527964         2.316538         0.251518
 O         2.451670         2.547142        -0.693409
 C         2.093749         1.235117        -1.196954
 C         2.929485         0.204176        -0.728146
 H        -0.033019        -1.330056         0.260155
 H        -0.748554         0.246771        -0.214664
 H        -0.034558        -0.851522        -1.513079
 H         1.247104         1.416090         1.570898
 H         1.826639        -0.195633         1.900639
 H         3.881072        -0.582338         1.749417
 H         3.330236         2.845883         1.199017
 H         4.543125         2.463339        -0.210098
 H         1.709524         1.279389        -2.209087
 H         3.499169        -0.479267        -1.362130
