19
Iteration:  4796charge 0 multiplicity 1
 C         0.150687        -0.686633        -0.738117
 C         1.264803         0.318271        -0.215146
 C         1.682445         0.611458         1.229065
 C         3.253145         0.845344         0.753764
 O         4.477574         0.213214         1.363711
 C         3.565954         2.270355         0.430532
 O         2.667506         2.539075        -0.763018
 C         2.076991         1.358756        -1.178374
 C         2.783888         0.312565        -0.591483
 H         0.497509        -1.531354        -0.140886
 H        -0.947982        -0.505850        -0.545239
 H         0.114145        -1.110829        -1.739536
 H         1.144664         1.394486         1.731739
 H         1.653960        -0.417600         1.770013
 H         4.062707        -0.538256         1.855408
 H         3.471142         2.999646         1.234871
 H         4.689789         2.310064         0.125954
 H         1.535187         1.517164        -2.185772
 H         3.509292        -0.420880        -1.068681
