19
Iteration:  2000charge 0 multiplicity 1
 C         0.115125        -0.520404        -0.652323
 C         1.329244         0.300998        -0.180723
 C         1.874031         0.555405         1.284899
 C         3.323388         0.757502         0.691247
 O         4.498046         0.403091         1.481596
 C         3.575806         2.179263         0.170946
 O         2.543781         2.583180        -0.664108
 C         1.937861         1.320882        -1.138790
 C         2.805075         0.094533        -0.738151
 H        -0.113256        -1.524075        -0.250264
 H        -0.852859         0.029025        -0.461862
 H         0.170028        -0.872863        -1.714614
 H         1.636278         1.477896         1.878377
 H         1.605109        -0.333816         1.849206
 H         4.200489        -0.363319         2.040716
 H         3.476195         2.867177         1.046579
 H         4.652267         2.143244        -0.235750
 H         1.377702         1.318254        -2.124571
 H         3.041331        -0.684447        -1.414847
