19
Iteration:  1807charge 0 multiplicity 1
 C         0.049997        -0.378369        -0.473867
 C         1.421512         0.215329        -0.320845
 C         1.803270         0.510247         1.154285
 C         3.318711         0.793552         0.719702
 O         4.389739         0.346571         1.522877
 C         3.554891         2.271093         0.214135
 O         2.530435         2.538321        -0.748001
 C         2.015003         1.267122        -1.196019
 C         2.928928         0.106945        -0.602555
 H        -0.126719        -1.348697         0.127515
 H        -0.696154         0.318156        -0.016402
 H        -0.237544        -0.627826        -1.591079
 H         1.302268         1.310629         1.660578
 H         1.753451        -0.372423         1.809822
 H         4.462177        -0.585917         1.307090
 H         3.442638         2.878380         1.096546
 H         4.539353         2.292801        -0.355022
 H         1.671638         1.227090        -2.240735
 H         3.442892        -0.590577        -1.196854
