19
Iteration:  4708charge 0 multiplicity 1
 C         0.112639        -0.396441        -0.698169
 C         1.417697         0.234341        -0.311764
 C         1.784200         0.555054         1.147887
 C         3.263183         0.764101         0.695247
 O         4.358973         0.425689         1.444396
 C         3.569708         2.199868         0.281081
 O         2.430370         2.524406        -0.486149
 C         2.128880         1.220162        -1.158046
 C         2.965552         0.116451        -0.670425
 H         0.013137        -1.357953        -0.131802
 H        -0.717414         0.408482        -0.532688
 H         0.126219        -0.583904        -1.777298
 H         1.250088         1.319477         1.703428
 H         1.440769        -0.422721         1.658278
 H         4.368605        -0.444807         1.885743
 H         3.641914         2.806848         1.185574
 H         4.501511         2.106946        -0.336859
 H         1.759665         1.407779        -2.170220
 H         3.464220        -0.672691        -1.302650
