19
Iteration:  2338
 C         0.125018        -0.514700        -0.387525
 C         1.306219         0.359561        -0.294447
 C         1.848440         0.482807         1.178898
 C         3.298857         0.797261         0.692257
 O         4.423095         0.301494         1.415747
 C         3.396011         2.291242         0.354694
 O         2.638181         2.553557        -0.783778
 C         2.115991         1.353889        -1.245546
 C         2.782650         0.093385        -0.694933
 H         0.426697        -1.269322         0.430466
 H        -0.788448         0.039247         0.057562
 H        -0.068345        -0.842237        -1.363940
 H         1.336766         1.204817         1.912470
 H         1.952105        -0.588817         1.498481
 H         4.316462        -0.640997         1.471328
 H         3.024811         2.971222         1.098575
 H         4.423741         2.517633         0.210393
 H         2.091290         1.302968        -2.353804
 H         3.210292        -0.643017        -1.385287
