19
Iteration:  4894charge 0 multiplicity 1
 C         0.204801        -0.428255        -0.622261
 C         1.395883         0.326709        -0.274218
 C         1.777483         0.511101         1.140630
 C         3.263521         0.754755         0.690132
 O         4.343588         0.395697         1.431557
 C         3.482831         2.193697         0.409491
 O         2.545064         2.479700        -0.660477
 C         2.146843         1.285729        -1.195051
 C         2.838480         0.179258        -0.642203
 H         0.168154        -1.432693        -0.194621
 H        -0.718095         0.117851        -0.453319
 H         0.137186        -0.575235        -1.692686
 H         1.219235         1.277974         1.658071
 H         1.772984        -0.349191         1.860792
 H         4.380521        -0.537130         1.601239
 H         3.283838         2.913979         1.196208
 H         4.499144         2.181432        -0.020114
 H         1.848923         1.262995        -2.254295
 H         3.253588        -0.649442        -1.178799
