19
Iteration:  3664charge 0 multiplicity 1
 C         0.265382        -0.412573        -0.784655
 C         1.391373         0.274334        -0.158942
 C         1.897240         0.597769         1.256036
 C         3.379533         0.752420         0.690222
 O         4.342178         0.312785         1.430874
 C         3.482707         2.255185         0.328642
 O         2.483859         2.534909        -0.680501
 C         1.958207         1.230777        -1.159931
 C         2.810571         0.127584        -0.664560
 H         0.139781        -1.462089        -0.305305
 H        -0.657722         0.095803        -0.715746
 H         0.500232        -0.657503        -1.877171
 H         1.381732         1.353121         1.792641
 H         1.854253        -0.290219         1.895412
 H         4.017020        -0.345951         2.040110
 H         3.332982         3.041405         1.150523
 H         4.543220         2.451926        -0.018598
 H         1.522215         1.271054        -2.148507
 H         3.309933        -0.837056        -0.965664
