19
Iteration:  1560charge 0 multiplicity 1
 C         0.048821        -0.479448        -0.534539
 C         1.325758         0.249603        -0.256802
 C         1.898471         0.436368         1.216872
 C         3.336357         0.801919         0.624800
 O         4.201408         0.325809         1.650659
 C         3.677657         2.221148         0.185210
 O         2.531612         2.619686        -0.701379
 C         2.033662         1.333118        -1.175818
 C         2.891618         0.101860        -0.742202
 H         0.006491        -1.514262        -0.076556
 H        -0.877567         0.191961        -0.216514
 H        -0.095100        -0.612963        -1.609713
 H         1.389497         1.112241         1.857361
 H         2.081363        -0.570758         1.561027
 H         5.027850         0.724832         1.430413
 H         3.789220         3.044928         0.931307
 H         4.546328         2.054009        -0.439029
 H         1.739982         1.195949        -2.245315
 H         3.486390        -0.640260        -1.247010
