19
Iteration:  1612charge 0 multiplicity 1
 C         0.222652        -0.494846        -0.592896
 C         1.369334         0.336972        -0.161664
 C         1.853390         0.710220         1.310784
 C         3.295436         0.865628         0.686479
 O         4.273134         0.120295         1.317248
 C         3.359304         2.359668         0.371074
 O         2.625853         2.495028        -0.782556
 C         2.193122         1.241542        -1.184948
 C         2.817343         0.052623        -0.579428
 H         0.411873        -1.531425        -0.235398
 H        -0.802820        -0.154502        -0.332475
 H         0.197476        -0.550900        -1.653285
 H         1.302855         1.691387         1.743471
 H         1.473517        -0.060394         2.036558
 H         4.833636        -0.006407         0.526793
 H         2.892525         2.857857         1.289567
 H         4.355715         2.859555         0.218068
 H         1.706122         1.097469        -2.189883
 H         3.301734        -0.828735        -1.214468
