19
Iteration:  3787charge 0 multiplicity 1
 C         0.171889        -0.623172        -0.786295
 C         1.382411         0.300915        -0.153162
 C         1.703394         0.690865         1.290688
 C         3.219684         0.840972         0.726150
 O         4.385082         0.298356         1.286859
 C         3.515936         2.315120         0.374400
 O         2.631333         2.524220        -0.740030
 C         2.133037         1.291016        -1.143504
 C         2.828997         0.135596        -0.504051
 H         0.145301        -1.630873        -0.364649
 H        -0.863317        -0.239971        -0.575814
 H         0.360052        -0.861077        -1.863658
 H         1.070191         1.321049         1.860660
 H         1.811176        -0.298963         1.775927
 H         4.268382        -0.641065         1.451473
 H         3.225281         2.965545         1.234746
 H         4.642046         2.252123         0.148982
 H         1.634834         1.288444        -2.138353
 H         3.364459        -0.635269        -0.994704
