19
Iteration:   629
 C        -0.038544        -0.352433        -0.385680
 C         1.363052         0.409673        -0.078327
 C         1.821708         0.874665         1.336787
 C         3.355961         0.772467         0.711337
 O         4.344774         0.179675         1.435477
 C         3.591266         2.253838         0.126198
 O         2.616651         2.413610        -0.981789
 C         2.127404         1.086417        -1.254742
 C         2.811186        -0.005391        -0.521412
 H        -0.306033        -1.134520         0.330552
 H        -0.903622         0.380764        -0.221600
 H        -0.234819        -0.684138        -1.378033
 H         1.488638         1.803702         1.767550
 H         1.416450         0.132331         2.029046
 H         4.994002        -0.025467         0.692367
 H         3.416825         3.117174         0.812843
 H         4.674908         2.455759        -0.396294
 H         1.669050         0.906933        -2.169331
 H         3.402108        -0.840665        -1.002346
