19
Iteration:  4913charge 0 multiplicity 1
 C         0.191765        -0.558945        -0.743685
 C         1.339368         0.402405        -0.246556
 C         1.787332         0.614413         1.319927
 C         3.301262         0.727843         0.694818
 O         4.452415         0.257191         1.504567
 C         3.417853         2.274864         0.391781
 O         2.646168         2.627029        -0.777297
 C         2.017938         1.307063        -1.165680
 C         2.782203         0.059200        -0.706122
 H         0.480481        -1.603446        -0.220276
 H        -0.819598        -0.235895        -0.572888
 H         0.220663        -0.785315        -1.796620
 H         1.602978         1.461808         2.053229
 H         1.582132        -0.400362         1.627890
 H         4.273182        -0.623856         1.752663
 H         2.981912         2.968028         1.148903
 H         4.441293         2.625740         0.192858
 H         1.686968         1.384698        -2.222720
 H         3.305759        -0.766780        -1.197503
