19
Iteration:  4870
 C         0.025483        -0.377236        -0.635955
 C         1.451671         0.167683        -0.363365
 C         1.808418         0.496521         1.118054
 C         3.325602         0.804023         0.737320
 O         4.342624         0.312539         1.548345
 C         3.567862         2.289495         0.245632
 O         2.384524         2.593225        -0.585032
 C         2.170083         1.225031        -1.188761
 C         3.025818         0.096141        -0.642952
 H        -0.255602        -1.386786        -0.111227
 H        -0.661374         0.408770        -0.455323
 H        -0.229862        -0.517216        -1.655593
 H         1.096340         1.296680         1.488294
 H         1.821332        -0.245608         1.925289
 H         4.208843        -0.615486         1.693073
 H         3.440671         2.866402         1.161682
 H         4.490598         2.349502        -0.331877
 H         1.584498         1.418156        -2.117455
 H         3.754742        -0.400048        -1.307067
