19
Iteration:  4187charge 0 multiplicity 1
 C         0.323073        -0.545212        -0.640776
 C         1.385005         0.331864        -0.217142
 C         1.768868         0.624047         1.246449
 C         3.251260         0.828264         0.707793
 O         4.306093         0.231960         1.345197
 C         3.445405         2.256855         0.360488
 O         2.531598         2.573275        -0.656599
 C         2.146383         1.313209        -1.151248
 C         2.815279         0.127060        -0.680209
 H         0.356643        -1.458122         0.045047
 H        -0.671366        -0.149283        -0.671366
 H         0.567304        -1.010839        -1.637511
 H         1.274003         1.495159         1.821797
 H         1.604207        -0.291597         1.840348
 H         4.262119        -0.724985         1.054154
 H         3.311173         3.025776         1.123953
 H         4.521438         2.223635         0.006025
 H         1.625004         1.497203        -2.046715
 H         3.500843        -0.630305        -1.120027
