19
Iteration:  4944
 C         0.313148        -0.579693        -0.656957
 C         1.395430         0.302815        -0.147172
 C         1.756379         0.596858         1.283753
 C         3.222782         0.874151         0.709489
 O         4.228808         0.186372         1.287128
 C         3.490972         2.313718         0.373574
 O         2.701412         2.563644        -0.769728
 C         2.047642         1.294830        -1.118251
 C         2.838090         0.175429        -0.682185
 H         0.458877        -1.661215        -0.317817
 H        -0.756281        -0.354399        -0.562244
 H         0.493755        -0.610304        -1.748594
 H         1.280678         1.256448         2.055352
 H         1.713697        -0.334294         1.850775
 H         3.887396        -0.478676         1.965270
 H         2.990953         3.015176         1.117082
 H         4.559286         2.577037         0.202239
 H         1.446312         1.415105        -2.035312
 H         3.651938        -0.472456        -1.024838
