19
Iteration:  4823
 C         0.234532        -0.466260        -0.671880
 C         1.397517         0.249386        -0.181454
 C         1.800450         0.583871         1.182848
 C         3.237595         0.746403         0.630828
 O         4.345402         0.316950         1.413687
 C         3.517473         2.248030         0.347682
 O         2.511171         2.581716        -0.633829
 C         2.140963         1.310074        -1.156909
 C         2.834180         0.113575        -0.686981
 H         0.232083        -1.445437        -0.105996
 H        -0.764212         0.013103        -0.653349
 H         0.322584        -0.771611        -1.760899
 H         1.294073         1.483879         1.686185
 H         1.628958        -0.248756         1.863387
 H         3.964581        -0.409232         1.925637
 H         3.467681         2.836666         1.291683
 H         4.481844         2.211903        -0.134368
 H         1.833767         1.438593        -2.178923
 H         3.263335        -0.816129        -1.045145
