19
Iteration:  2769charge 0 multiplicity 1
 C         0.231613        -0.544930        -0.594791
 C         1.269493         0.435687        -0.149123
 C         1.829957         0.539866         1.343286
 C         3.221323         0.752921         0.643492
 O         4.501532         0.294404         1.482115
 C         3.504781         2.258705         0.254741
 O         2.724510         2.555849        -0.876308
 C         1.937371         1.255718        -1.217280
 C         2.644352         0.172034        -0.611402
 H         0.279780        -1.501534         0.020149
 H        -0.854110        -0.161908        -0.714850
 H         0.645250        -0.776980        -1.645132
 H         1.490559         1.412330         2.019215
 H         1.754373        -0.400006         1.884650
 H         4.452896        -0.647025         1.470553
 H         3.151575         2.900136         1.048708
 H         4.703298         2.334555         0.124339
 H         1.300534         1.583533        -1.985046
 H         3.177716        -0.693555        -1.011870
