19
Iteration:  3872charge 0 multiplicity 1
 C         0.228786        -0.448622        -0.593394
 C         1.496514         0.255311        -0.279346
 C         1.707063         0.577723         1.170475
 C         3.291733         0.815414         0.714510
 O         4.386659         0.300546         1.507898
 C         3.521471         2.236796         0.303621
 O         2.460684         2.561460        -0.642469
 C         2.036446         1.252295        -1.275209
 C         2.893335         0.116316        -0.680784
 H         0.026361        -1.429628        -0.048121
 H        -0.535637         0.206581        -0.352496
 H         0.020971        -0.590098        -1.716990
 H         1.161739         1.525758         1.533854
 H         1.553738        -0.319780         1.815096
 H         4.158690        -0.532907         1.917726
 H         3.515046         2.941053         1.190046
 H         4.531076         2.267641        -0.035847
 H         1.698490         1.087879        -2.352055
 H         3.590137        -0.521730        -1.178912
