19
Iteration:   837
 C         0.076829        -0.253712        -0.470362
 C         1.398514         0.256816        -0.104509
 C         1.883428         0.789648         1.211629
 C         3.292712         0.853755         0.679047
 O         4.316186         0.330570         1.470178
 C         3.615888         2.164408         0.077028
 O         2.524748         2.412360        -0.782427
 C         2.086186         1.102950        -1.144693
 C         2.802858        -0.066276        -0.606180
 H        -0.066410        -1.206732         0.092228
 H        -0.642419         0.577909         0.021328
 H        -0.045063        -0.296173        -1.548362
 H         1.346769         1.802393         1.485257
 H         1.774745         0.155766         2.171867
 H         4.582218        -0.397448         0.915400
 H         3.672711         2.915325         0.912257
 H         4.535820         2.372188        -0.516746
 H         1.661988         0.994498        -2.211306
 H         3.227594        -0.897561        -1.090662
