19
Iteration:  2768
 C         0.229635        -0.545841        -0.595629
 C         1.267808         0.424350        -0.143415
 C         1.833106         0.540982         1.346211
 C         3.222429         0.754237         0.638092
 O         4.502029         0.294579         1.484611
 C         3.503099         2.262142         0.251872
 O         2.734335         2.552091        -0.877652
 C         1.926677         1.266576        -1.214137
 C         2.650499         0.171235        -0.613510
 H         0.277296        -1.474052         0.017682
 H        -0.913612        -0.171172        -0.739695
 H         0.656404        -0.781669        -1.633389
 H         1.504934         1.399143         2.004290
 H         1.755251        -0.421033         1.843337
 H         4.460107        -0.655249         1.508899
 H         3.117965         2.916111         1.041152
 H         4.674866         2.302561         0.124075
 H         1.286205         1.611723        -1.998413
 H         3.185775        -0.663816        -0.982180
