19
Iteration:  2382charge 0 multiplicity 1
 C         0.151224        -0.419503        -0.782736
 C         1.358045         0.212179        -0.124940
 C         1.924857         0.667864         1.299647
 C         3.328244         0.803965         0.657255
 O         4.394386         0.343050         1.327149
 C         3.591148         2.337573         0.204619
 O         2.400519         2.442191        -0.630341
 C         2.047646         1.211365        -1.085772
 C         2.795708         0.041627        -0.547864
 H        -0.044242        -1.561713        -0.491138
 H        -0.703810         0.263573        -0.361382
 H         0.240084        -0.206356        -1.835828
 H         1.493060         1.622024         1.805150
 H         1.984577        -0.209329         2.017760
 H         4.223040        -0.508435         1.709960
 H         3.636338         2.866885         1.123943
 H         4.533922         2.407812        -0.260852
 H         1.622836         1.174457        -2.138111
 H         3.310719        -0.589516        -1.222793
