19
Iteration:  4671charge 0 multiplicity 1
 C         0.183584        -0.467955        -0.769782
 C         1.342686         0.326046        -0.189354
 C         1.899593         0.514799         1.215922
 C         3.283508         0.736598         0.647000
 O         4.375037         0.283590         1.515526
 C         3.479485         2.330859         0.385350
 O         2.581122         2.586103        -0.805706
 C         2.029236         1.274690        -1.071019
 C         2.821522         0.136627        -0.641914
 H        -0.092439        -1.462511        -0.247681
 H        -0.767096        -0.027076        -0.733980
 H         0.476788        -0.804009        -1.756693
 H         1.590521         1.353176         1.934956
 H         1.798006        -0.486283         1.600887
 H         4.131889        -0.705505         1.552331
 H         3.168761         2.787813         1.388201
 H         4.518830         2.749724         0.157576
 H         1.458232         1.147947        -1.997373
 H         3.327251        -0.593847        -1.233681
