19
Iteration:   298charge 0 multiplicity 1
 C        -0.067655        -0.364061        -0.138405
 C         1.277977         0.472932        -0.126067
 C         1.881489         1.031186         1.158562
 C         3.320571         0.821363         0.681062
 O         4.358811         0.118388         1.439591
 C         3.676293         2.200785         0.090571
 O         2.670847         2.368920        -1.045065
 C         2.078809         1.081748        -1.273215
 C         2.756599        -0.007765        -0.466250
 H         0.035777        -1.294980         0.423232
 H        -0.904555         0.286554         0.278840
 H        -0.503912        -0.532879        -1.149749
 H         1.604062         1.943905         1.757212
 H         1.743520         0.283938         1.945397
 H         4.542464        -0.650620         0.817631
 H         3.523019         3.021413         0.833325
 H         4.723523         2.353063        -0.350772
 H         1.821667         0.967309        -2.260773
 H         3.235190        -0.930531        -0.796325
