19
Iteration:  1525charge 0 multiplicity 1
 C         0.125775        -0.397015        -0.602591
 C         1.453080         0.266180        -0.234326
 C         1.825424         0.686006         1.175401
 C         3.322155         0.777162         0.622993
 O         4.351853         0.223015         1.622008
 C         3.623878         2.238436         0.205719
 O         2.341327         2.511886        -0.623410
 C         2.036620         1.221016        -1.155825
 C         2.873576         0.045641        -0.715682
 H        -0.084589        -1.383356        -0.062427
 H        -0.793970         0.286668        -0.417719
 H         0.250522        -0.641433        -1.667894
 H         1.354279         1.643438         1.399720
 H         1.514846        -0.031413         1.893339
 H         5.190676         0.451472         1.269128
 H         3.850585         2.827545         1.109199
 H         4.407249         2.377336        -0.501193
 H         1.917642         1.359320        -2.204245
 H         3.545700        -0.620864        -1.394624
