19
Iteration:  3205
 C         0.202338        -0.676980        -0.435477
 C         1.348745         0.352627        -0.253734
 C         1.846656         0.564609         1.185195
 C         3.286758         0.846707         0.668376
 O         4.196495         0.106572         1.405884
 C         3.520667         2.331487         0.350501
 O         2.637312         2.659919        -0.783054
 C         2.057846         1.330233        -1.187641
 C         2.842853         0.199156        -0.757038
 H         0.276944        -1.559569         0.257371
 H        -0.595057        -0.086574         0.016089
 H        -0.057617        -1.042931        -1.474235
 H         1.368486         1.224958         1.833155
 H         2.005258        -0.463166         1.602201
 H         4.948085         0.327824         2.028613
 H         3.080307         2.725647         1.339989
 H         4.541646         2.552867         0.080423
 H         1.830555         1.339283        -2.277511
 H         3.364866        -0.566750        -1.288992
