19
Iteration:   466
 C         0.006359        -0.447149        -0.173805
 C         1.299678         0.456970        -0.122874
 C         1.750906         0.785750         1.287375
 C         3.235086         0.819024         0.758359
 O         4.401900         0.264628         1.345563
 C         3.701406         2.121278         0.106755
 O         2.847889         2.361907        -1.090493
 C         2.041579         1.242228        -1.257881
 C         2.646801         0.046799        -0.596425
 H         0.140130        -1.406550         0.409989
 H        -0.855439         0.202298         0.208172
 H        -0.295530        -0.604713        -1.213168
 H         1.484664         1.681639         1.869209
 H         1.568037        -0.066889         1.992927
 H         4.383040         0.661566         2.255837
 H         3.618195         3.029389         0.782948
 H         4.771354         1.975870        -0.231837
 H         1.459992         1.153780        -2.209440
 H         2.938998        -0.871490        -1.049615
