19
Iteration:  2782
 C         0.245354        -0.525711        -0.604546
 C         1.280952         0.438488        -0.117561
 C         1.813996         0.620474         1.312512
 C         3.286606         0.777512         0.750546
 O         4.409558         0.303538         1.391982
 C         3.524938         2.221528         0.309219
 O         2.608559         2.532615        -0.852304
 C         2.050362         1.321558        -1.196695
 C         2.724367         0.075129        -0.634726
 H         0.277340        -1.493086         0.008535
 H        -0.725564        -0.155215        -0.454289
 H         0.292052        -0.815933        -1.679503
 H         1.389941         1.472956         1.942819
 H         1.733728        -0.352642         1.837795
 H         4.482610        -0.682920         1.252041
 H         3.316850         2.896679         1.126836
 H         4.586264         2.420930        -0.114377
 H         1.720608         1.148390        -2.200372
 H         2.900432        -0.868609        -1.244412
