19
Iteration:   932charge 0 multiplicity 1
 C         0.010807        -0.456100        -0.445571
 C         1.316663         0.314219        -0.172976
 C         1.850990         0.802189         1.181794
 C         3.347600         0.821451         0.662376
 O         4.331372         0.184138         1.558715
 C         3.694467         2.246693         0.020096
 O         2.521891         2.525414        -0.786332
 C         2.047681         1.185171        -1.182243
 C         2.820389         0.034386        -0.519073
 H        -0.114897        -1.321319         0.183372
 H        -0.866167         0.156062        -0.287580
 H         0.137165        -0.601404        -1.525926
 H         1.430704         1.738474         1.546278
 H         1.823511         0.146795         2.042277
 H         4.928217        -0.445467         1.044707
 H         3.615865         2.933361         0.894316
 H         4.711703         2.291565        -0.456888
 H         1.760141         1.186224        -2.278155
 H         3.234134        -0.730916        -1.112035
