19
Iteration:  1993charge 0 multiplicity 1
 C         0.075013        -0.513471        -0.698472
 C         1.335965         0.336121        -0.147706
 C         1.888447         0.541218         1.261631
 C         3.339769         0.742284         0.668691
 O         4.496504         0.418461         1.508667
 C         3.570062         2.146620         0.173487
 O         2.471370         2.592549        -0.674314
 C         2.004796         1.280884        -1.096202
 C         2.825310         0.105904        -0.709885
 H        -0.062280        -1.436760        -0.162887
 H        -0.847208        -0.015504        -0.459519
 H         0.015378        -0.533077        -1.831490
 H         1.598982         1.477764         1.768766
 H         1.595790        -0.309233         1.968217
 H         4.412516        -0.370755         2.011326
 H         3.624861         2.877454         0.998315
 H         4.423899         1.917497        -0.540865
 H         1.490191         1.256108        -2.060907
 H         3.175668        -0.619765        -1.517732
