19
Iteration:  3287
 C         0.223396        -0.453004        -0.747244
 C         1.417366         0.277990        -0.176671
 C         1.834464         0.536316         1.252516
 C         3.284600         0.802244         0.724480
 O         4.463879         0.297718         1.414625
 C         3.570517         2.204077         0.219018
 O         2.413229         2.533675        -0.636217
 C         1.961082         1.300471        -1.118212
 C         2.798810         0.092277        -0.667358
 H         0.037581        -1.397895        -0.310598
 H        -0.679522         0.194227        -0.688042
 H         0.309744        -0.466822        -1.813418
 H         1.274335         1.337358         1.823523
 H         1.690506        -0.331696         1.848497
 H         4.235245         0.265325         2.406161
 H         3.752631         2.824971         1.029056
 H         4.538624         2.276000        -0.230101
 H         1.628905         1.409570        -2.153587
 H         3.474316        -0.455772        -1.267120
