19
Iteration:  2867charge 0 multiplicity 1
 C         0.167206        -0.523280        -0.537647
 C         1.360385         0.365692        -0.220454
 C         1.854569         0.523142         1.203142
 C         3.269927         0.785693         0.703796
 O         4.364729         0.337526         1.449242
 C         3.550249         2.209000         0.201415
 O         2.591050         2.549082        -0.692676
 C         2.037682         1.287870        -1.206480
 C         2.771013         0.123273        -0.677283
 H         0.221687        -1.475041        -0.027232
 H        -0.804733         0.007086        -0.221516
 H         0.097944        -0.571378        -1.664033
 H         1.391814         1.304748         1.843544
 H         1.803332        -0.394966         1.741859
 H         4.153091        -0.269135         2.161232
 H         3.530451         2.961648         0.950686
 H         4.567134         2.258975        -0.204078
 H         1.708752         1.577671        -2.173727
 H         3.287918        -0.752098        -1.176862
