19
Iteration:   208
 C        -0.075508        -0.228315        -0.271524
 C         1.261977         0.385613        -0.054914
 C         1.901091         0.999832         1.241091
 C         3.354799         0.789049         0.666110
 O         4.445330         0.244861         1.343922
 C         3.702974         2.143400         0.044924
 O         2.648553         2.306414        -0.972107
 C         2.045611         1.044780        -1.212886
 C         2.717724        -0.042942        -0.517015
 H        -0.308670        -0.873141         0.625182
 H        -0.894964         0.549682        -0.292922
 H        -0.105404        -0.843714        -1.199318
 H         1.673143         2.033462         1.619140
 H         1.534436         0.413714         2.090599
 H         4.184937        -0.293499         2.122544
 H         3.521415         2.912677         0.798393
 H         4.717763         2.269926        -0.455651
 H         1.597044         1.016528        -2.267951
 H         3.065298        -1.028724        -0.818384
