19
Iteration:  4478
 C         0.145734        -0.519427        -0.612952
 C         1.413431         0.352966        -0.281431
 C         1.862221         0.450573         1.185477
 C         3.222889         0.833619         0.641548
 O         4.296016         0.259243         1.456933
 C         3.407851         2.345827         0.342227
 O         2.552655         2.691065        -0.694440
 C         2.144118         1.189760        -1.149231
 C         2.976705         0.111238        -0.629298
 H         0.034294        -1.317752         0.072859
 H        -0.778852         0.151355        -0.298259
 H        -0.026049        -0.854961        -1.614395
 H         1.220865         1.094944         1.787611
 H         2.014220        -0.609870         1.574033
 H         4.101598        -0.726029         1.438081
 H         3.223759         2.890982         1.266719
 H         4.454129         2.428766         0.078028
 H         1.843310         1.077908        -2.232471
 H         3.640835        -0.417546        -1.292101
