19
Iteration:  1319
 C         0.142286        -0.659452        -0.428322
 C         1.275648         0.401206        -0.193133
 C         1.805208         0.589579         1.240688
 C         3.256156         0.877864         0.742199
 O         4.257394         0.177394         1.407916
 C         3.530268         2.265894         0.367284
 O         2.715438         2.585758        -0.845424
 C         2.164035         1.320637        -1.295645
 C         2.763142         0.150277        -0.669845
 H         0.047524        -1.411054         0.364990
 H        -0.874702        -0.180547        -0.347681
 H         0.244631        -1.199524        -1.330070
 H         1.365742         1.442959         1.897109
 H         1.926305        -0.474498         1.703854
 H         5.004300         0.099160         0.780330
 H         3.191379         3.020470         1.111295
 H         4.546616         2.543775         0.065364
 H         1.737026         1.338979        -2.301530
 H         3.383097        -0.653283        -1.169100
