19
Iteration:   460
 C         0.029167        -0.402480        -0.154308
 C         1.305041         0.435383        -0.076179
 C         1.741252         0.794790         1.329452
 C         3.184306         0.773963         0.716481
 O         4.426032         0.267554         1.362583
 C         3.679816         2.155444         0.111813
 O         2.848259         2.362874        -1.104036
 C         2.027001         1.229159        -1.276327
 C         2.683095         0.029702        -0.644199
 H         0.284335        -1.253732         0.438139
 H        -0.808702         0.169999         0.120026
 H        -0.268209        -0.601952        -1.199987
 H         1.302478         1.689117         1.835768
 H         1.351353        -0.038125         1.927630
 H         4.355982         0.383717         2.354352
 H         3.773317         3.020563         0.750043
 H         4.740452         2.157940        -0.220894
 H         1.508560         1.220540        -2.185949
 H         2.967893        -0.948463        -1.121579
