19
Iteration:  2730
 C         0.096196        -0.432918        -0.514176
 C         1.365588         0.247591        -0.129302
 C         1.845016         0.568978         1.227256
 C         3.260395         0.800986         0.642322
 O         4.361535         0.326500         1.366443
 C         3.494066         2.296626         0.299379
 O         2.625804         2.549445        -0.768851
 C         2.077140         1.265690        -1.221755
 C         2.853320         0.050208        -0.681180
 H        -0.004973        -1.313304         0.148147
 H        -0.825105         0.129138        -0.418668
 H         0.179638        -0.869446        -1.489018
 H         1.396958         1.290847         1.881745
 H         1.809560        -0.381462         1.828592
 H         4.049169        -0.367149         2.016455
 H         3.329009         2.972277         1.171518
 H         4.504038         2.477663         0.049681
 H         1.654234         1.311633        -2.227169
 H         3.593997        -0.740516        -1.067509
