19
Iteration:  4128
 C         0.230309        -0.384661        -0.689453
 C         1.495284         0.156724        -0.257627
 C         1.899078         0.557997         1.212480
 C         3.367300         0.803241         0.640239
 O         4.270419         0.370739         1.512911
 C         3.589418         2.187608         0.249017
 O         2.364758         2.501193        -0.545847
 C         2.013982         1.260453        -1.132838
 C         2.876105         0.147409        -0.773769
 H        -0.064011        -1.354637        -0.328698
 H        -0.586579         0.407833        -0.268582
 H         0.217545        -0.256861        -1.776538
 H         1.354376         1.378508         1.708219
 H         1.781185        -0.514543         1.768490
 H         3.718838        -0.154182         2.073096
 H         3.671038         2.920298         1.075120
 H         4.507807         2.324560        -0.370306
 H         1.510100         1.286035        -2.140558
 H         3.449423        -0.648706        -1.248714
