19
Iteration:  3333charge 0 multiplicity 1
 C         0.135807        -0.574228        -0.482543
 C         1.420809         0.270450        -0.286208
 C         1.796130         0.555530         1.066335
 C         3.296434         0.839773         0.646438
 O         4.308233         0.097861         1.403846
 C         3.380534         2.355870         0.440374
 O         2.596727         2.558369        -0.686966
 C         2.079730         1.315023        -1.216644
 C         2.906162         0.223838        -0.655387
 H         0.325060        -1.320859         0.333449
 H        -0.774982        -0.071745        -0.297924
 H         0.021063        -1.021488        -1.418642
 H         1.369075         1.367819         1.717907
 H         1.826677        -0.335376         1.712799
 H         5.164616         0.587180         1.448707
 H         3.153290         3.009111         1.220062
 H         4.435199         2.585129         0.299971
 H         1.863978         1.371350        -2.304007
 H         3.325578        -0.427081        -1.399165
