19
Iteration:  2618
 C         0.231605        -0.626989        -0.521451
 C         1.293255         0.436420        -0.110199
 C         1.785100         0.676416         1.344219
 C         3.239405         0.812876         0.681036
 O         4.348719         0.254879         1.219837
 C         3.477391         2.239223         0.363758
 O         2.676997         2.499791        -0.807904
 C         2.152774         1.330454        -1.211184
 C         2.723621         0.134224        -0.618157
 H         0.386402        -1.594966         0.089998
 H        -0.797559        -0.418342        -0.618706
 H         0.548517        -0.822611        -1.604956
 H         1.559363         1.545171         1.918986
 H         1.815397        -0.311782         1.751242
 H         4.152059        -0.486722         1.780383
 H         3.123738         2.914841         1.104408
 H         4.492124         2.470917         0.143895
 H         1.680474         1.383919        -2.220393
 H         3.172222        -0.694015        -1.144157
