19
Iteration:  3360
 C         0.270265        -0.535247        -0.524435
 C         1.434465         0.284928        -0.220662
 C         1.755772         0.623614         1.191922
 C         3.234899         0.760762         0.627632
 O         4.301194         0.193241         1.436000
 C         3.417851         2.264858         0.391604
 O         2.515552         2.609712        -0.647689
 C         2.115801         1.290546        -1.277016
 C         2.887218         0.150256        -0.710611
 H         0.433587        -1.452777         0.020452
 H        -0.703659        -0.079927        -0.180973
 H         0.157609        -0.766679        -1.656213
 H         1.468820         1.517598         1.692393
 H         1.738746        -0.168718         1.957895
 H         4.934653        -0.231951         0.806816
 H         3.141472         2.896442         1.282100
 H         4.501364         2.482772         0.288459
 H         1.666958         1.354656        -2.255824
 H         3.570692        -0.390208        -1.371438
