19
Iteration:   465charge 0 multiplicity 1
 C         0.010619        -0.445953        -0.168923
 C         1.304728         0.454747        -0.116391
 C         1.746867         0.786437         1.292243
 C         3.224490         0.813208         0.756699
 O         4.407283         0.265713         1.347827
 C         3.702316         2.125139         0.108091
 O         2.847960         2.360077        -1.093929
 C         2.041166         1.243894        -1.259941
 C         2.651880         0.043576        -0.605365
 H         0.173811        -1.394938         0.424555
 H        -0.876605         0.227045         0.186713
 H        -0.303814        -0.586568        -1.220694
 H         1.461950         1.671839         1.875478
 H         1.523466        -0.055764         1.988130
 H         4.374227         0.622298         2.255298
 H         3.655813         3.033045         0.781594
 H         4.744546         2.016065        -0.218402
 H         1.435485         1.156423        -2.234586
 H         2.934980        -0.876828        -1.062961
