19
Iteration:   789
 C        -0.001269        -0.303969        -0.356616
 C         1.361765         0.309543        -0.160544
 C         1.825844         0.662868         1.256967
 C         3.303053         0.770093         0.641919
 O         4.364669         0.327084         1.473690
 C         3.680063         2.154149         0.054321
 O         2.615334         2.468750        -0.845833
 C         2.038678         1.195235        -1.214584
 C         2.790468        -0.005915        -0.610629
 H        -0.242564        -0.988532         0.500416
 H        -0.816530         0.464889        -0.577629
 H         0.106027        -0.960761        -1.304319
 H         1.499063         1.554019         1.833212
 H         1.814221        -0.201314         1.936589
 H         4.062691         0.660032         2.386304
 H         3.921610         2.993363         0.748858
 H         4.622883         2.148461        -0.548059
 H         1.604848         1.178787        -2.176408
 H         3.148736        -0.887027        -1.246078
