19
Iteration:  1692
 C         0.075826        -0.512397        -0.572012
 C         1.413086         0.246274        -0.327634
 C         1.902842         0.675543         1.119687
 C         3.305100         0.755547         0.635990
 O         4.320743         0.222380         1.667268
 C         3.626484         2.205984         0.179446
 O         2.418542         2.483141        -0.544464
 C         2.043653         1.319925        -1.197085
 C         2.860092         0.145244        -0.767144
 H        -0.026965        -1.340079         0.153643
 H        -0.777045         0.244855        -0.283525
 H         0.022186        -0.916611        -1.611743
 H         1.587345         1.679239         1.660494
 H         1.718205        -0.111159         1.917116
 H         5.026295         0.877924         1.638294
 H         3.788179         3.081858         0.933373
 H         4.396966         2.194884        -0.636982
 H         1.734420         1.496681        -2.199420
 H         3.349782        -0.456954        -1.445065
