19
Iteration:  3897charge 0 multiplicity 1
 C         0.177276        -0.599783        -0.766272
 C         1.303016         0.450151        -0.201210
 C         1.835090         0.683049         1.269538
 C         3.265985         0.812693         0.673902
 O         4.393669         0.324564         1.389069
 C         3.406502         2.258081         0.334437
 O         2.619050         2.512379        -0.701874
 C         2.085334         1.263676        -1.116338
 C         2.821922         0.057515        -0.588038
 H         0.298412        -1.576887        -0.347928
 H        -0.899865        -0.346325        -0.592653
 H         0.310645        -0.720113        -1.870397
 H         1.458122         1.521337         1.797868
 H         1.831243        -0.265050         1.866215
 H         4.384529        -0.652927         1.536993
 H         3.146063         2.848443         1.228214
 H         4.567444         2.451337         0.284694
 H         1.935981         1.126501        -2.211469
 H         3.402116        -0.785441        -1.023150
