19
Iteration:  4114
 C         0.175959        -0.360609        -0.626982
 C         1.449282         0.268512        -0.241225
 C         1.887914         0.512470         1.140740
 C         3.296577         0.806790         0.665509
 O         4.325006         0.239094         1.542409
 C         3.465154         2.322217         0.236134
 O         2.413021         2.522310        -0.648483
 C         2.055242         1.264881        -1.171731
 C         2.978345         0.099826        -0.686969
 H         0.134732        -1.406266        -0.243808
 H        -0.634763         0.173319        -0.131878
 H        -0.040652        -0.496668        -1.701568
 H         1.358802         1.226541         1.776930
 H         2.055396        -0.392766         1.721901
 H         4.010585        -0.533265         2.080792
 H         3.307316         2.996590         1.118576
 H         4.460973         2.419990        -0.219756
 H         1.625075         1.426345        -2.146874
 H         3.592024        -0.479287        -1.405317
