19
Iteration:  2262charge 0 multiplicity 1
 C         0.177698        -0.450399        -0.773908
 C         1.330202         0.292559        -0.159176
 C         1.895736         0.719709         1.287953
 C         3.323765         0.850638         0.692685
 O         4.417761         0.363730         1.319823
 C         3.621862         2.191746         0.122026
 O         2.380288         2.448165        -0.475431
 C         2.056762         1.261713        -1.168280
 C         2.783443         0.011710        -0.554315
 H         0.331384        -1.492435        -0.438328
 H        -0.731846         0.038786        -0.407883
 H         0.349408        -0.532405        -1.776206
 H         1.415655         1.554786         1.862844
 H         1.705090        -0.117967         1.934307
 H         4.128071        -0.382070         1.934721
 H         3.873293         2.912946         0.910016
 H         4.479939         2.218484        -0.606808
 H         1.627541         1.201005        -2.132403
 H         3.156277        -0.834183        -1.212037
