19
Iteration:  1963
 C         0.066787        -0.409741        -0.653647
 C         1.477498         0.259470        -0.186043
 C         1.832113         0.611491         1.198944
 C         3.343776         0.865190         0.687475
 O         4.371304         0.365953         1.430092
 C         3.570287         2.258140         0.149557
 O         2.394158         2.456429        -0.551844
 C         2.081205         1.146149        -1.167832
 C         2.904342         0.073822        -0.629937
 H        -0.029813        -1.500136        -0.256392
 H        -0.436921         0.341622         0.038301
 H        -0.297029        -0.052914        -1.609498
 H         1.263491         1.433080         1.643891
 H         1.814471        -0.313043         1.789929
 H         4.237750        -0.638401         1.271394
 H         3.808940         3.087326         0.865809
 H         4.514334         2.400659        -0.366112
 H         1.616275         1.344588        -2.096954
 H         3.329363        -0.830580        -1.172019
