19
Iteration:   268
 C        -0.003729        -0.263494        -0.247594
 C         1.355445         0.365719        -0.043425
 C         1.922286         0.933633         1.206371
 C         3.318884         0.754169         0.641362
 O         4.265946         0.273167         1.522907
 C         3.794793         2.032634        -0.066087
 O         2.636686         2.409227        -0.942430
 C         1.932560         1.157165        -1.175754
 C         2.681996        -0.089558        -0.590057
 H        -0.098845        -1.174960         0.304621
 H        -0.717875         0.430845         0.116800
 H        -0.224628        -0.467581        -1.280178
 H         1.673526         1.927015         1.578779
 H         1.894415         0.111859         1.963941
 H         5.075240         0.771645         1.410242
 H         4.021087         2.787158         0.711874
 H         4.686073         1.841642        -0.647068
 H         1.467580         1.209479        -2.135741
 H         3.129273        -0.964592        -1.076512
