19
Iteration:  4697charge 0 multiplicity 1
 C         0.205426        -0.366117        -0.753483
 C         1.426743         0.282280        -0.282147
 C         1.828570         0.552362         1.241141
 C         3.248952         0.768094         0.762756
 O         4.448036         0.406418         1.526199
 C         3.521660         2.168988         0.351101
 O         2.420075         2.473209        -0.586407
 C         2.095991         1.292126        -1.235724
 C         2.789956         0.082700        -0.774111
 H        -0.043211        -1.309152        -0.169002
 H        -0.744012         0.290443        -0.600844
 H         0.224779        -0.694160        -1.798128
 H         1.447289         1.425415         1.754749
 H         1.779438        -0.437379         1.840774
 H         4.214818        -0.547099         1.773360
 H         3.629917         2.933170         1.133658
 H         4.507964         2.199573        -0.166115
 H         1.596962         1.350050        -2.191163
 H         3.468752        -0.560318        -1.385519
