19
Iteration:  4757
 C         0.287264        -0.471697        -0.592110
 C         1.398032         0.385816        -0.245160
 C         1.861000         0.603578         1.204112
 C         3.250486         0.788439         0.611221
 O         4.257165         0.220079         1.515539
 C         3.472765         2.205705         0.374030
 O         2.484210         2.515629        -0.696845
 C         2.063707         1.335852        -1.173886
 C         2.945066         0.152779        -0.772942
 H         0.508937        -1.479259        -0.178887
 H        -0.685028        -0.095474        -0.207757
 H         0.284497        -0.531423        -1.721657
 H         1.376038         1.474095         1.729912
 H         1.816350        -0.156011         1.943363
 H         4.083675        -0.754578         1.545134
 H         3.190911         2.762444         1.278255
 H         4.422838         2.364285        -0.056823
 H         1.690367         1.389914        -2.180654
 H         3.487066        -0.660946        -1.177632
