19
Iteration:   722charge 0 multiplicity 1
 C         0.125372        -0.417659        -0.312756
 C         1.354497         0.415949        -0.085337
 C         1.848180         0.916172         1.315106
 C         3.276693         0.826603         0.688092
 O         4.204673         0.125784         1.347344
 C         3.593161         2.214728         0.119300
 O         2.663701         2.399510        -0.936327
 C         2.100613         1.149357        -1.243701
 C         2.765424         0.031571        -0.546999
 H         0.168352        -1.477575         0.121359
 H        -0.908059        -0.095368        -0.113697
 H         0.115777        -0.563914        -1.460609
 H         1.509708         1.926337         1.619313
 H         1.559529         0.258355         2.130618
 H         5.063598         0.534414         1.349956
 H         3.632081         2.927215         0.999635
 H         4.653832         2.159695        -0.300904
 H         1.757890         1.254802        -2.274774
 H         3.161630        -0.894496        -0.923363
