19
Iteration:  2589
 C         0.154009        -0.538265        -0.442378
 C         1.451190         0.216125        -0.234640
 C         1.774371         0.699680         1.182577
 C         3.377376         0.829991         0.669837
 O         4.398964         0.131265         1.390661
 C         3.482639         2.289581         0.363575
 O         2.537192         2.561009        -0.806229
 C         1.983416         1.342226        -1.188270
 C         2.859127         0.138584        -0.653790
 H        -0.026084        -1.412380         0.160226
 H        -0.784071         0.168954        -0.422517
 H         0.141556        -0.900053        -1.454722
 H         1.485292         1.669538         1.612996
 H         1.676061        -0.232859         1.815512
 H         4.105183        -0.680032         1.904362
 H         3.183384         3.075591         1.109236
 H         4.472528         2.758711         0.021371
 H         1.686263         1.327418        -2.201738
 H         3.481543        -0.503696        -1.328226
