19
Iteration:   815
 C        -0.088494        -0.241004        -0.489704
 C         1.347898         0.289097        -0.205585
 C         1.923271         0.767736         1.195262
 C         3.383778         0.792085         0.661642
 O         4.391590         0.270731         1.615492
 C         3.655414         2.131275         0.018786
 O         2.455279         2.420499        -0.752324
 C         2.003238         1.101743        -1.195201
 C         2.866023         0.013232        -0.564788
 H        -0.311177        -1.079030         0.213583
 H        -0.954333         0.535407        -0.386748
 H        -0.167823        -0.604545        -1.512981
 H         1.566809         1.705553         1.781755
 H         1.940130        -0.021694         2.016425
 H         5.283883         0.790691         1.564348
 H         3.870070         3.013152         0.674989
 H         4.470864         2.073960        -0.746070
 H         1.758799         1.072949        -2.324856
 H         3.274469        -0.723980        -1.193652
