19
Iteration:   193
 C         0.067197        -0.195146        -0.140880
 C         1.404594         0.439186        -0.038621
 C         1.838952         1.013147         1.294730
 C         3.225450         0.791983         0.593729
 O         4.303737         0.276050         1.275504
 C         3.614139         2.190992         0.114109
 O         2.742433         2.306284        -0.994165
 C         2.085320         1.024819        -1.228323
 C         2.695586        -0.173086        -0.531733
 H        -0.237252        -0.904713         0.685399
 H        -0.703044         0.580574        -0.210300
 H         0.037489        -0.786580        -1.087583
 H         1.524371         2.012588         1.328539
 H         1.891270         0.365446         2.159855
 H         4.013826        -0.680865         1.384552
 H         3.445037         2.993059         0.858715
 H         4.674798         2.142294        -0.142607
 H         1.662464         0.881307        -2.168402
 H         3.164441        -0.944929        -1.143031
