19
Iteration:  1718
 C         0.136548        -0.426532        -0.561260
 C         1.457238         0.253647        -0.224018
 C         1.778108         0.675228         1.205379
 C         3.234199         0.860342         0.668570
 O         4.319394         0.127404         1.347457
 C         3.549269         2.274735         0.310476
 O         2.474920         2.541871        -0.737657
 C         2.088292         1.215285        -1.155962
 C         2.911339         0.099400        -0.560667
 H         0.138467        -1.436951        -0.054848
 H        -0.751622         0.150759        -0.240843
 H         0.288554        -0.668251        -1.692110
 H         1.218511         1.416597         1.744717
 H         1.963858        -0.227258         1.831081
 H         4.786246         0.736172         1.954213
 H         3.444932         3.017713         1.056653
 H         4.450685         2.371085        -0.331196
 H         1.728892         1.339953        -2.201078
 H         3.536394        -0.755928        -1.081268
