19
Iteration:   286charge 0 multiplicity 1
 C        -0.101979        -0.331533        -0.173824
 C         1.201015         0.444923        -0.135492
 C         1.893526         0.968194         1.280883
 C         3.369396         0.787148         0.645891
 O         4.365160         0.146997         1.532757
 C         3.699248         2.194569        -0.016770
 O         2.662455         2.353053        -0.981853
 C         2.094145         1.118505        -1.251728
 C         2.730134         0.005537        -0.567036
 H        -0.097587        -1.332227         0.346185
 H        -0.936492         0.262782         0.371816
 H        -0.253778        -0.585157        -1.261455
 H         1.633188         2.052042         1.246529
 H         1.660001         0.321541         2.129534
 H         5.138472        -0.143394         1.026634
 H         3.599862         3.019023         0.716994
 H         4.736249         2.138936        -0.528093
 H         1.806769         1.010792        -2.260442
 H         3.026442        -0.917378        -1.052055
