19
Iteration:  1754charge 0 multiplicity 1
 C         0.175629        -0.498083        -0.580542
 C         1.295466         0.369012        -0.145918
 C         1.799605         0.653471         1.301456
 C         3.273148         0.774093         0.735136
 O         4.521262         0.207870         1.328971
 C         3.353016         2.300475         0.377974
 O         2.719229         2.502350        -0.965768
 C         2.037574         1.334542        -1.142307
 C         2.769080         0.096755        -0.630421
 H         0.317139        -1.518033        -0.154466
 H        -0.838891        -0.247426        -0.445081
 H         0.155306        -0.579244        -1.652058
 H         1.374897         1.363347         2.009778
 H         1.719066        -0.273251         1.852405
 H         4.142158        -0.234915         2.098701
 H         2.973811         2.824419         1.225477
 H         4.392768         2.605741         0.333507
 H         1.570579         1.090258        -2.078834
 H         3.295561        -0.668302        -1.064534
