19
Iteration:   418
 C        -0.091844        -0.258774        -0.295971
 C         1.321562         0.383153        -0.074719
 C         1.912791         0.920702         1.246029
 C         3.428781         0.837777         0.587914
 O         4.332758         0.201033         1.503266
 C         3.689839         2.296020         0.026884
 O         2.599197         2.341922        -0.908389
 C         2.019783         1.017368        -1.230264
 C         2.756579        -0.043765        -0.562702
 H        -0.244257        -1.083158         0.439069
 H        -0.951559         0.522501        -0.270641
 H        -0.141122        -0.634866        -1.369384
 H         1.611644         1.834594         1.769687
 H         1.971425         0.245010         2.102314
 H         4.470852        -0.653374         1.100864
 H         3.567820         3.079688         0.780918
 H         4.670310         2.360036        -0.377160
 H         1.776328         0.864968        -2.265928
 H         3.288808        -0.974080        -0.862146
