19
Iteration:  1197charge 0 multiplicity 1
 C         0.116129        -0.463558        -0.474120
 C         1.305418         0.369832        -0.188114
 C         1.889570         0.622929         1.235085
 C         3.336249         0.830785         0.642646
 O         4.272549         0.168615         1.397463
 C         3.524482         2.335090         0.282184
 O         2.650598         2.474752        -0.798055
 C         2.048455         1.209028        -1.226868
 C         2.830443         0.080755        -0.617600
 H         0.140356        -1.406204         0.021615
 H        -0.773049         0.098165        -0.347450
 H         0.028470        -0.721014        -1.485973
 H         1.321535         1.330171         1.907071
 H         1.984283        -0.274606         1.860487
 H         4.825393         0.782041         1.877827
 H         3.135597         3.018567         1.049010
 H         4.526348         2.613428         0.056934
 H         1.717215         1.329450        -2.291011
 H         3.095965        -0.805176        -1.149008
