19
Iteration:  4573
 C         0.265973        -0.492275        -0.751562
 C         1.389031         0.203856        -0.222923
 C         1.759080         0.533086         1.179836
 C         3.335527         0.731360         0.699978
 O         4.286622         0.277830         1.540103
 C         3.587430         2.267946         0.087741
 O         2.433279         2.601574        -0.598721
 C         2.067971         1.291795        -0.998936
 C         2.898872         0.226240        -0.639198
 H        -0.020331        -1.624841        -0.546663
 H        -0.520516        -0.058334        -0.182001
 H         0.223732        -0.305541        -1.842314
 H         1.316024         1.489640         1.629851
 H         1.687289        -0.342185         1.822821
 H         3.981395        -0.609176         1.931708
 H         3.836752         3.113822         0.781590
 H         4.397995         1.954175        -0.652228
 H         1.740226         1.600757        -2.035041
 H         3.569349        -0.344637        -1.282227
