19
Iteration:  2660charge 0 multiplicity 1
 C         0.140988        -0.473968        -0.566117
 C         1.342206         0.244557        -0.199679
 C         1.879248         0.603925         1.282693
 C         3.274616         0.810252         0.641513
 O         4.345838         0.353131         1.502423
 C         3.609014         2.217728         0.179834
 O         2.548079         2.534273        -0.719913
 C         1.972154         1.276406        -1.130669
 C         2.845523         0.106190        -0.699024
 H         0.127294        -1.548086        -0.380853
 H        -0.742683        -0.080770        -0.210611
 H         0.092098        -0.438723        -1.676377
 H         1.253285         1.429826         1.803421
 H         1.746074        -0.279981         1.918014
 H         4.393518        -0.614946         1.727171
 H         3.704864         2.947619         0.957246
 H         4.604110         2.259188        -0.304443
 H         1.633966         1.274256        -2.201468
 H         3.498622        -0.476757        -1.315250
