19
Iteration:  2197
 C         0.174116        -0.518926        -0.369108
 C         1.407988         0.359168        -0.280621
 C         1.823873         0.550699         1.193751
 C         3.335921         0.840775         0.625358
 O         4.297589         0.201460         1.347036
 C         3.450011         2.293698         0.339895
 O         2.559642         2.589623        -0.744784
 C         2.106563         1.293897        -1.217355
 C         2.891870         0.131665        -0.657344
 H         0.359042        -1.247153         0.464429
 H        -0.817950        -0.029413        -0.170495
 H        -0.007666        -1.165993        -1.245940
 H         1.257010         1.335145         1.732449
 H         1.755894        -0.458114         1.572743
 H         4.166407        -0.735935         1.305993
 H         3.088943         2.862485         1.243759
 H         4.496592         2.800488         0.250643
 H         1.705133         1.365073        -2.200608
 H         3.381577        -0.702730        -1.276553
