19
Iteration:  1252
 C         0.052460        -0.424432        -0.621031
 C         1.336140         0.283516        -0.234886
 C         1.853066         0.685174         1.169733
 C         3.338800         0.812375         0.658954
 O         4.357480         0.387940         1.499339
 C         3.692452         2.197666         0.094853
 O         2.425752         2.469411        -0.572285
 C         2.087356         1.190952        -1.145710
 C         2.867489         0.056767        -0.566999
 H         0.085577        -1.488221        -0.419568
 H        -0.802802        -0.022076        -0.094914
 H        -0.012604        -0.335598        -1.682899
 H         1.295499         1.516330         1.683951
 H         2.035027        -0.246169         1.724245
 H         4.138419        -0.550638         1.765072
 H         3.887368         2.954383         0.862517
 H         4.543606         2.089316        -0.554547
 H         1.599830         1.310045        -2.132505
 H         3.343764        -0.480400        -1.298163
