19
Iteration:  4533charge 0 multiplicity 1
 C         0.206216        -0.551511        -0.728524
 C         1.364250         0.391881        -0.231860
 C         1.831246         0.594909         1.202634
 C         3.243579         0.705683         0.629122
 O         4.371814         0.365796         1.414600
 C         3.527729         2.255695         0.424118
 O         2.533624         2.492378        -0.644861
 C         2.092172         1.333447        -1.148266
 C         2.815994         0.090159        -0.646737
 H         0.024949        -1.502954        -0.233777
 H        -0.805920         0.056219        -0.679396
 H         0.458482        -0.786787        -1.748669
 H         1.477164         1.533625         1.649225
 H         1.747457        -0.346046         1.843750
 H         4.311203        -0.500690         1.795785
 H         3.260163         2.824539         1.319914
 H         4.498349         2.620161         0.107251
 H         1.718403         1.283837        -2.193812
 H         3.230250        -0.665423        -1.244618
