19
Iteration:  4857
 C         0.040494        -0.337005        -0.687650
 C         1.442425         0.161423        -0.277329
 C         1.861202         0.549276         1.067192
 C         3.409491         0.778746         0.643300
 O         4.380058         0.245350         1.665839
 C         3.491423         2.299907         0.269053
 O         2.349333         2.514341        -0.607742
 C         2.073884         1.259849        -1.147216
 C         2.996279         0.186480        -0.707497
 H        -0.221399        -1.286182        -0.042579
 H        -0.691928         0.360920        -0.308231
 H         0.081348        -0.612666        -1.749522
 H         1.415974         1.519378         1.546651
 H         1.766665        -0.311856         1.725226
 H         4.058219        -0.692518         1.825542
 H         3.579171         3.131981         1.013730
 H         4.377467         2.464195        -0.354555
 H         2.004295         1.122357        -2.245698
 H         3.556622        -0.550243        -1.313093
