19
Iteration:   867
 C         0.007553        -0.516980        -0.365084
 C         1.286754         0.402128        -0.141165
 C         1.856666         0.786251         1.309651
 C         3.274702         0.863371         0.740189
 O         4.414166         0.165646         1.381019
 C         3.589505         2.224420         0.171157
 O         2.724541         2.459127        -0.968964
 C         2.083323         1.184192        -1.244080
 C         2.762295         0.139615        -0.621727
 H         0.052385        -1.472370         0.166638
 H        -0.965977        -0.073137        -0.021297
 H        -0.228819        -0.631984        -1.453968
 H         1.547827         1.709983         1.797587
 H         1.642254         0.063194         2.088547
 H         3.991385        -0.325005         2.126855
 H         3.245762         2.898582         0.982771
 H         4.514342         2.508414        -0.291856
 H         1.748369         1.160622        -2.324819
 H         3.296351        -0.747735        -0.929363
