19
Iteration:  1448charge 0 multiplicity 1
 C         0.158014        -0.602965        -0.510949
 C         1.329285         0.460914        -0.188238
 C         1.898381         0.516342         1.239291
 C         3.271964         0.784305         0.647784
 O         4.293537         0.257710         1.606124
 C         3.538067         2.247004         0.373274
 O         2.695664         2.527538        -0.882555
 C         2.022178         1.340878        -1.244934
 C         2.714063         0.199607        -0.744850
 H         0.511140        -1.535426         0.005345
 H        -0.867859        -0.228742        -0.340506
 H         0.061503        -0.786288        -1.587918
 H         1.493943         1.274330         1.882815
 H         1.836680        -0.396491         1.723313
 H         5.043817        -0.200540         1.174979
 H         3.054418         2.902425         1.115435
 H         4.570083         2.482462         0.197525
 H         1.573188         1.303230        -2.219918
 H         3.092262        -0.640194        -1.447286
