19
Iteration:  4073
 C         0.208060        -0.532157        -0.500063
 C         1.364009         0.283772        -0.294443
 C         1.737521         0.580728         1.160524
 C         3.208054         0.767817         0.732027
 O         4.372886         0.351179         1.300754
 C         3.387194         2.292218         0.453390
 O         2.769516         2.536131        -0.723806
 C         2.122616         1.288640        -1.152061
 C         2.816289         0.108893        -0.689405
 H         0.395794        -1.491344        -0.049036
 H        -0.798458        -0.026121        -0.168747
 H         0.097025        -0.691088        -1.577860
 H         1.181397         1.405300         1.628362
 H         1.560480        -0.352314         1.891837
 H         4.333394        -0.630907         1.131633
 H         2.759619         2.898622         1.145324
 H         4.421067         2.641108         0.576082
 H         1.748141         1.364603        -2.179807
 H         3.290002        -0.702204        -1.218098
