19
Iteration:  2081
 C         0.150546        -0.554390        -0.516949
 C         1.393569         0.269766        -0.183639
 C         1.861825         0.730766         1.205478
 C         3.284149         0.727695         0.546763
 O         4.307809         0.287168         1.403447
 C         3.572582         2.271427         0.303616
 O         2.501283         2.510923        -0.600264
 C         2.022304         1.303765        -1.204419
 C         2.861925         0.139115        -0.693377
 H         0.301519        -1.454803         0.095695
 H        -0.722000        -0.037687        -0.153302
 H        -0.123454        -0.878770        -1.653155
 H         1.364696         1.609905         1.650660
 H         1.918081        -0.196053         1.898749
 H         4.364306        -0.630391         1.175688
 H         3.640740         2.917382         1.214562
 H         4.643999         2.517714        -0.227320
 H         1.695655         1.353423        -2.207539
 H         3.583233        -0.539385        -1.196700
