19
Iteration:  1159charge 0 multiplicity 1
 C         0.118649        -0.484650        -0.427098
 C         1.423326         0.348010        -0.187710
 C         1.757175         0.752190         1.295130
 C         3.239461         0.808711         0.741613
 O         4.410108         0.171153         1.301038
 C         3.434877         2.248951         0.306700
 O         2.633934         2.497149        -0.838736
 C         2.093609         1.193189        -1.247511
 C         2.895609         0.180258        -0.622829
 H        -0.044468        -1.259417         0.408114
 H        -0.777662         0.195238        -0.383468
 H         0.265904        -1.037363        -1.441109
 H         1.488365         1.775667         1.496700
 H         1.412729        -0.009864         2.010326
 H         3.974356        -0.639208         1.529611
 H         3.197390         2.888397         1.166981
 H         4.522517         2.427143         0.005802
 H         1.757712         1.059201        -2.253131
 H         3.335367        -0.567181        -1.307783
