19
Iteration:  2015charge 0 multiplicity 1
 C         0.189900        -0.553138        -0.559754
 C         1.351541         0.299094        -0.163672
 C         1.869920         0.588629         1.217336
 C         3.314302         0.811882         0.619609
 O         4.390369         0.324057         1.387181
 C         3.594239         2.245047         0.344450
 O         2.583205         2.507309        -0.727140
 C         1.962100         1.334173        -1.154601
 C         2.697668         0.128935        -0.713338
 H         0.118234        -1.271998         0.235424
 H        -0.752838        -0.041593        -0.596369
 H         0.343000        -0.813529        -1.656085
 H         1.284894         1.296011         1.828756
 H         2.005597        -0.378861         1.829575
 H         4.251064        -0.377377         2.095008
 H         3.358254         2.877765         1.219391
 H         4.592440         2.402053        -0.271001
 H         1.573304         1.532195        -2.146212
 H         3.274667        -0.692091        -1.248569
