19
Iteration:   126charge 0 multiplicity 1
 C         0.076852        -0.184489        -0.249320
 C         1.368916         0.354249        -0.026613
 C         1.899502         0.951396         1.343236
 C         3.269932         0.752647         0.622735
 O         4.285638         0.335091         1.434492
 C         3.763788         1.956793        -0.069401
 O         2.680521         2.351600        -0.948966
 C         1.953624         1.127045        -1.221791
 C         2.647001        -0.104088        -0.593119
 H        -0.028501        -1.221614         0.140794
 H        -0.611355         0.480341         0.302782
 H        -0.262968        -0.213806        -1.298077
 H         1.603819         1.908602         1.592868
 H         1.829513         0.167226         2.066511
 H         4.520894         1.132224         1.913220
 H         4.099332         2.774050         0.625930
 H         4.632524         1.665074        -0.666818
 H         1.498081         1.237347        -2.180910
 H         2.885630        -1.087633        -1.006503
