19
Iteration:  3865charge 0 multiplicity 1
 C         0.196823        -0.442521        -0.578902
 C         1.471889         0.177188        -0.299661
 C         1.752639         0.594000         1.122568
 C         3.269084         0.816745         0.705702
 O         4.361558         0.290868         1.554610
 C         3.522275         2.235756         0.224403
 O         2.446697         2.566445        -0.627969
 C         2.025238         1.252430        -1.171752
 C         2.993774         0.140790        -0.726500
 H         0.015183        -1.259972         0.071591
 H        -0.569886         0.369323        -0.274802
 H        -0.142961        -0.595243        -1.595560
 H         1.033193         1.306956         1.424492
 H         1.638340        -0.329997         1.714747
 H         3.977284        -0.473464         1.959029
 H         3.440670         2.914458         1.072738
 H         4.637290         2.188062        -0.159484
 H         1.858998         1.429470        -2.225407
 H         3.781206        -0.472818        -1.185546
