19
Iteration:  4209
 C         0.292141        -0.617517        -0.555724
 C         1.392671         0.249031        -0.245813
 C         1.825563         0.637480         1.228382
 C         3.295934         0.794802         0.695433
 O         4.255524         0.051516         1.424031
 C         3.421630         2.379773         0.454659
 O         2.653022         2.618756        -0.809232
 C         1.972564         1.331517        -1.158378
 C         2.866388         0.309263        -0.728727
 H         0.270939        -1.612613         0.017284
 H        -0.623872        -0.071099        -0.400302
 H         0.371493        -0.964711        -1.630851
 H         1.149117         1.468011         1.699022
 H         1.961138        -0.184493         1.934366
 H         4.320202        -0.855684         1.151059
 H         2.970166         2.925455         1.297900
 H         4.393972         2.822271         0.167543
 H         1.731600         1.278951        -2.195218
 H         3.496747        -0.453829        -1.221959
