19
Iteration:  1360charge 0 multiplicity 1
 C         0.136460        -0.446038        -0.593280
 C         1.373460         0.299041        -0.150335
 C         1.901735         0.661065         1.250745
 C         3.282510         0.800266         0.672365
 O         4.375998         0.322404         1.415711
 C         3.545867         2.203224         0.238097
 O         2.528890         2.475849        -0.708614
 C         2.026258         1.246339        -1.153438
 C         2.845377         0.118493        -0.705130
 H        -0.020023        -1.417441        -0.061279
 H        -0.768950         0.176322        -0.743567
 H         0.376436        -0.750693        -1.654661
 H         1.376204         1.415720         1.819218
 H         1.734937        -0.224202         1.841819
 H         3.857765        -0.139827         2.147368
 H         3.411420         2.828235         1.136982
 H         4.641135         2.179895        -0.094941
 H         1.622081         1.299291        -2.194926
 H         3.335011        -0.639990        -1.283556
