19
Iteration:   549
 C        -0.064047        -0.295408        -0.311222
 C         1.307577         0.329706        -0.166705
 C         1.827003         0.824258         1.208200
 C         3.366269         0.848427         0.651709
 O         4.393360         0.328569         1.491145
 C         3.743524         2.172644        -0.021198
 O         2.619105         2.375647        -0.805576
 C         2.058239         1.151379        -1.222865
 C         2.745723        -0.048795        -0.551449
 H        -0.233851        -1.020623         0.458279
 H        -0.908904         0.408884        -0.327088
 H        -0.247373        -0.996076        -1.141907
 H         1.441530         1.795718         1.594760
 H         1.877932        -0.024774         1.895035
 H         3.920200        -0.517068         1.745126
 H         3.852493         2.987416         0.718694
 H         4.760400         2.314991        -0.715251
 H         1.773113         1.045670        -2.342308
 H         3.140715        -0.963627        -0.958180
