19
Iteration:  1927charge 0 multiplicity 1
 C         0.181234        -0.530786        -0.444746
 C         1.337387         0.334555        -0.252124
 C         1.884776         0.698700         1.170655
 C         3.368186         0.773919         0.677904
 O         4.370170         0.219182         1.437517
 C         3.439643         2.260776         0.356045
 O         2.565135         2.542067        -0.797262
 C         2.028812         1.272045        -1.199840
 C         2.878628         0.159438        -0.686812
 H         0.111808        -1.498717        -0.000277
 H        -0.562194        -0.019407         0.147469
 H        -0.257948        -0.715797        -1.466635
 H         1.370918         1.541250         1.632097
 H         1.668936        -0.171690         1.856585
 H         4.196883        -0.777118         1.508788
 H         3.050107         2.719074         1.218260
 H         4.400671         2.521194        -0.026059
 H         1.649919         1.206453        -2.243630
 H         3.370710        -0.518411        -1.392647
