19
Iteration:  1666
 C         0.185397        -0.523095        -0.568722
 C         1.372519         0.303083        -0.266961
 C         1.886474         0.562336         1.114276
 C         3.292998         0.743196         0.554089
 O         4.200327         0.365418         1.620917
 C         3.662201         2.225372         0.171743
 O         2.509191         2.577180        -0.526460
 C         2.038107         1.281522        -1.137262
 C         2.807055         0.085299        -0.737573
 H         0.077126        -1.326689         0.147652
 H        -0.653871         0.069983        -0.426686
 H         0.238350        -0.893995        -1.548774
 H         1.525693         1.400313         1.814857
 H         1.691666        -0.283795         1.765268
 H         5.015438         0.083568         1.239202
 H         3.834025         2.835398         1.062396
 H         4.553211         2.331358        -0.537954
 H         1.603698         1.371703        -2.171482
 H         3.196015        -0.712815        -1.463545
