19
Iteration:  2465charge 0 multiplicity 1
 C         0.222842        -0.607321        -0.405037
 C         1.365743         0.360607        -0.240073
 C         1.867619         0.611478         1.269320
 C         3.251055         0.815533         0.634980
 O         4.368832         0.099339         1.356077
 C         3.414216         2.302645         0.400806
 O         2.622255         2.611764        -0.836877
 C         1.998744         1.319149        -1.231117
 C         2.844005         0.266364        -0.694016
 H         0.431922        -1.416373         0.270023
 H        -0.710874        -0.252607        -0.121305
 H         0.155538        -1.157451        -1.384515
 H         1.518936         1.492290         1.715112
 H         1.510156        -0.214368         1.855957
 H         4.103265        -0.825170         1.662920
 H         3.022999         2.819961         1.279601
 H         4.428746         2.609512         0.110810
 H         2.054115         1.309721        -2.318835
 H         3.439882        -0.472008        -1.270052
