19
Iteration:  4378
 C         0.289793        -0.624009        -0.600297
 C         1.388411         0.283692        -0.313956
 C         1.830613         0.616585         1.236309
 C         3.287678         0.769315         0.626064
 O         4.258033         0.196725         1.483469
 C         3.452000         2.268241         0.383637
 O         2.577057         2.672522        -0.705060
 C         2.068609         1.314267        -1.148008
 C         2.839945         0.189576        -0.718629
 H         0.458533        -1.512101        -0.040031
 H        -0.665587        -0.129468        -0.340576
 H         0.143762        -0.829314        -1.627657
 H         1.461111         1.486421         1.788567
 H         1.754495        -0.193019         1.981447
 H         4.240306        -0.766583         1.276276
 H         3.169766         2.843213         1.290379
 H         4.452823         2.558632         0.092996
 H         1.792958         1.469395        -2.143394
 H         3.324980        -0.555526        -1.378543
