19
Iteration:  1334
 C         0.130052        -0.612602        -0.456392
 C         1.325051         0.308367        -0.221753
 C         1.781552         0.559304         1.219022
 C         3.232118         0.758036         0.697632
 O         4.391280         0.288014         1.498685
 C         3.542699         2.313588         0.262739
 O         2.733751         2.610646        -0.849879
 C         2.049362         1.387571        -1.181384
 C         2.727662         0.142524        -0.658888
 H         0.196845        -1.364439         0.333201
 H        -0.794479        -0.108919        -0.657781
 H         0.275924        -1.182782        -1.421312
 H         1.213600         1.202848         1.881766
 H         1.645390        -0.388593         1.757305
 H         4.598675        -0.581923         1.011856
 H         3.334062         2.948036         1.116840
 H         4.592567         2.262789         0.083537
 H         1.817626         1.407777        -2.238268
 H         3.042323        -0.756208        -1.244251
