19
Iteration:  1934charge 0 multiplicity 1
 C         0.109471        -0.499368        -0.451904
 C         1.410630         0.299578        -0.219706
 C         1.894239         0.700303         1.143897
 C         3.346933         0.753053         0.684884
 O         4.386221         0.219603         1.448480
 C         3.452247         2.231876         0.282492
 O         2.500955         2.556499        -0.762038
 C         2.005656         1.220326        -1.210876
 C         2.903706         0.160813        -0.637527
 H         0.082523        -1.564211        -0.132727
 H        -0.579483         0.114708         0.166415
 H        -0.092933        -0.476106        -1.505883
 H         1.461439         1.687856         1.492940
 H         1.629623        -0.139428         1.756034
 H         4.171097        -0.734090         1.369654
 H         3.125304         2.787740         1.224728
 H         4.497912         2.631744         0.129891
 H         1.872148         1.225198        -2.290211
 H         3.545899        -0.266108        -1.354624
