19
Iteration:  4281
 C         0.074300        -0.440740        -0.872139
 C         1.413073         0.191437        -0.205097
 C         1.861948         0.546540         1.175049
 C         3.304555         0.770348         0.652534
 O         4.504211         0.360724         1.561635
 C         3.559142         2.246278         0.240522
 O         2.397297         2.571452        -0.524198
 C         2.036742         1.258711        -1.120540
 C         2.849983         0.109526        -0.649377
 H        -0.000667        -1.478616        -0.738393
 H        -0.891039         0.062177        -0.412104
 H         0.016380        -0.256180        -1.935567
 H         1.416498         1.381496         1.604902
 H         1.811255        -0.320859         1.896494
 H         4.043713        -0.364161         2.067477
 H         3.666002         2.938762         1.101060
 H         4.483395         2.329490        -0.394088
 H         1.833215         1.271249        -2.172281
 H         3.382989        -0.575178        -1.320146
