19
Iteration:  4467
 C         0.191916        -0.476746        -0.624417
 C         1.413288         0.243852        -0.256625
 C         1.821483         0.503640         1.156330
 C         3.277501         0.769233         0.734607
 O         4.334429         0.316833         1.498531
 C         3.451700         2.271497         0.346538
 O         2.484993         2.604943        -0.685954
 C         2.101407         1.313051        -1.204899
 C         2.934322         0.106585        -0.710354
 H         0.113027        -1.435519        -0.165004
 H        -0.711484         0.201059        -0.361850
 H         0.114783        -0.586490        -1.686169
 H         1.491298         1.285526         1.826137
 H         1.748954        -0.440374         1.774871
 H         4.222445        -0.661671         1.678458
 H         3.333521         2.965037         1.181625
 H         4.447066         2.397038        -0.071689
 H         1.689468         1.460352        -2.241897
 H         3.520874        -0.615732        -1.292112
