19
Iteration:  4004
 C         0.161258        -0.436634        -0.677949
 C         1.496074         0.170938        -0.215977
 C         1.835518         0.581175         1.188200
 C         3.281855         0.849050         0.706833
 O         4.298371         0.309661         1.455557
 C         3.510763         2.235807         0.221939
 O         2.448323         2.515023        -0.578628
 C         2.090494         1.260440        -1.174649
 C         2.919646         0.154198        -0.693767
 H        -0.098063        -1.419223        -0.165818
 H        -0.594016         0.288105        -0.495509
 H         0.142849        -0.579189        -1.807528
 H         1.321278         1.501850         1.583685
 H         1.662658        -0.266315         1.918990
 H         3.999452        -0.263522         2.161897
 H         3.650175         2.809902         1.165465
 H         4.491346         2.172641        -0.272225
 H         1.758570         1.452722        -2.199651
 H         3.550960        -0.585889        -1.237074
