19
Iteration:  2757charge 0 multiplicity 1
 C         0.178185        -0.553830        -0.629452
 C         1.272131         0.349111        -0.067167
 C         1.880855         0.554953         1.309170
 C         3.276345         0.794898         0.709751
 O         4.439793         0.319684         1.442397
 C         3.469925         2.248356         0.295343
 O         2.767937         2.492089        -0.931609
 C         1.889694         1.439768        -1.132359
 C         2.726797         0.125589        -0.678437
 H         0.122479        -1.430054         0.059389
 H        -0.950642        -0.193000        -0.751839
 H         0.483377        -1.032354        -1.613939
 H         1.461077         1.271668         2.077180
 H         1.836598        -0.465703         1.698077
 H         4.328761        -0.601932         1.795224
 H         3.227588         2.992164         1.074462
 H         4.602037         2.389481         0.039717
 H         1.479450         1.400690        -2.135521
 H         3.145909        -0.729285        -1.167294
