19
Iteration:   899charge 0 multiplicity 1
 C         0.230250        -0.456731        -0.253829
 C         1.303949         0.467189        -0.115689
 C         1.771632         0.701412         1.259475
 C         3.209000         0.798379         0.653682
 O         4.216547         0.186679         1.404539
 C         3.620734         2.178557         0.132351
 O         2.775888         2.461634        -0.934022
 C         2.031208         1.274018        -1.206582
 C         2.749395         0.065497        -0.672730
 H         0.354969        -1.411868         0.218049
 H        -0.740675        -0.046323        -0.061330
 H         0.187633        -0.936321        -1.261832
 H         1.457500         1.627004         1.647794
 H         1.804877        -0.227319         1.776209
 H         4.777559         0.892427         1.762753
 H         3.429946         2.673072         1.120959
 H         4.692721         2.404954        -0.081410
 H         1.502912         1.295928        -2.220097
 H         3.038493        -0.903112        -1.065208
