19
Iteration:  1618
 C         0.209620        -0.508370        -0.613229
 C         1.400080         0.358111        -0.170758
 C         1.796447         0.693414         1.288566
 C         3.290975         0.846452         0.738434
 O         4.301745         0.087248         1.313871
 C         3.411956         2.407569         0.377702
 O         2.588020         2.495527        -0.821905
 C         2.151261         1.267502        -1.127761
 C         2.817748         0.041806        -0.575800
 H         0.363246        -1.496986        -0.171485
 H        -0.809240        -0.182891        -0.311974
 H         0.249320        -0.607168        -1.748998
 H         1.293993         1.510102         1.702351
 H         1.596142        -0.004174         2.113058
 H         4.960772        -0.211549         0.598083
 H         2.969645         3.158511         1.044559
 H         4.370591         2.865881         0.116780
 H         1.856982         1.133895        -2.137299
 H         3.354750        -0.688277        -1.145270
