19
Iteration:  4906charge 0 multiplicity 1
 C         0.198443        -0.515793        -0.703768
 C         1.320764         0.411130        -0.235475
 C         1.797249         0.575845         1.251009
 C         3.246593         0.730434         0.746535
 O         4.434849         0.318241         1.481982
 C         3.453494         2.231969         0.359923
 O         2.595122         2.581639        -0.739725
 C         2.080578         1.311504        -1.217152
 C         2.835327         0.054395        -0.680544
 H         0.316873        -1.441428        -0.203174
 H        -0.800103        -0.160519        -0.415248
 H         0.329363        -0.699152        -1.778538
 H         1.425306         1.406712         1.817803
 H         1.600172        -0.464411         1.657284
 H         4.332235        -0.628874         1.677847
 H         3.135859         2.713455         1.285337
 H         4.473606         2.626287         0.228258
 H         1.604485         1.473714        -2.181454
 H         3.298308        -0.723706        -1.275021
