19
Iteration:  2796charge 0 multiplicity 1
 C         0.132357        -0.487509        -0.536586
 C         1.398806         0.330874        -0.226802
 C         1.833438         0.719588         1.229369
 C         3.229231         0.792310         0.658639
 O         4.350181         0.275076         1.349408
 C         3.507241         2.253953         0.259180
 O         2.559101         2.496416        -0.700613
 C         2.079423         1.223546        -1.153451
 C         2.855761         0.111143        -0.572139
 H         0.321005        -1.465127        -0.121526
 H        -0.818457        -0.106001        -0.263602
 H         0.187698        -0.630498        -1.587658
 H         1.397322         1.527801         1.791605
 H         1.676787        -0.209584         1.856692
 H         4.353190        -0.672838         1.267866
 H         3.453158         3.072774         1.033145
 H         4.532830         2.253351        -0.076533
 H         1.867497         1.354690        -2.237693
 H         3.423840        -0.705489        -1.006285
