19
Iteration:  3676charge 0 multiplicity 1
 C         0.246438        -0.383499        -0.710140
 C         1.472987         0.262756        -0.206450
 C         1.798025         0.583796         1.217407
 C         3.245087         0.804170         0.638095
 O         4.413879         0.317368         1.495674
 C         3.535252         2.221399         0.276498
 O         2.392448         2.470229        -0.613823
 C         2.059340         1.276873        -1.159587
 C         2.888197         0.098293        -0.686770
 H         0.094313        -1.399477        -0.188275
 H        -0.648034         0.197030        -0.547277
 H         0.363482        -0.575139        -1.839163
 H         1.355762         1.502735         1.528146
 H         1.670804        -0.257423         1.916485
 H         4.020936        -0.309085         2.184805
 H         3.387735         2.841279         1.193154
 H         4.472158         2.373306        -0.294952
 H         1.544425         1.353788        -2.088432
 H         3.276214        -0.608886        -1.462247
