19
Iteration:  2390charge 0 multiplicity 1
 C         0.155131        -0.410016        -0.777812
 C         1.346697         0.241645        -0.127934
 C         1.881692         0.659889         1.282726
 C         3.385848         0.848204         0.641505
 O         4.423471         0.309027         1.382939
 C         3.637349         2.294940         0.169204
 O         2.348772         2.507900        -0.575168
 C         1.991367         1.178561        -1.134022
 C         2.852400         0.014794        -0.544525
 H        -0.029191        -1.502550        -0.527618
 H        -0.816980         0.126077        -0.501524
 H         0.268560        -0.242244        -1.849318
 H         1.461333         1.537945         1.780470
 H         1.951616        -0.239033         1.929337
 H         4.200421        -0.523655         1.754042
 H         3.598696         3.025780         0.999056
 H         4.549993         2.479472        -0.522095
 H         1.536721         1.327559        -2.109260
 H         3.296216        -0.910550        -1.044243
