19
Iteration:   392charge 0 multiplicity 1
 C         0.010519        -0.197578        -0.338672
 C         1.415324         0.256352        -0.077395
 C         1.863122         0.933465         1.215379
 C         3.310587         0.724985         0.685332
 O         4.342436         0.260698         1.479625
 C         3.688340         2.068714        -0.043833
 O         2.509124         2.405698        -0.861041
 C         1.978157         1.141681        -1.151290
 C         2.780753        -0.011252        -0.521257
 H        -0.337646        -0.901490         0.393879
 H        -0.531294         0.664807        -0.410984
 H        -0.105239        -0.549647        -1.332124
 H         1.657653         1.953143         1.510584
 H         1.583473         0.384272         2.117951
 H         5.096614         0.249964         0.886952
 H         4.197161         2.900733         0.428302
 H         4.482750         1.625799        -0.678572
 H         1.766964         0.910051        -2.205951
 H         3.375014        -0.822171        -0.885880
