19
Iteration:  2496
 C         0.238403        -0.444621        -0.599673
 C         1.380618         0.296761        -0.141169
 C         1.836788         0.575968         1.310289
 C         3.273525         0.839931         0.666648
 O         4.394878         0.264208         1.279725
 C         3.506446         2.359136         0.346803
 O         2.555527         2.515589        -0.755718
 C         2.027289         1.222059        -1.165571
 C         2.774822         0.089757        -0.620818
 H         0.365500        -1.613389        -0.267095
 H        -0.723868        -0.100294        -0.233944
 H         0.133806        -0.495018        -1.790519
 H         1.352825         1.437529         1.838408
 H         1.714465        -0.399640         1.885081
 H         4.115234        -0.585465         1.591922
 H         3.282564         3.014643         1.220561
 H         4.502768         2.640880        -0.010867
 H         1.762026         1.305711        -2.220474
 H         3.217293        -0.859156        -1.024237
