19
Iteration:   701
 C         0.106895        -0.388305        -0.351499
 C         1.331579         0.360383        -0.162598
 C         1.806513         0.809395         1.203403
 C         3.285491         0.798857         0.670852
 O         4.297313         0.208543         1.505206
 C         3.766506         2.133627        -0.023496
 O         2.623192         2.453652        -0.883004
 C         1.989270         1.186551        -1.172779
 C         2.767903         0.039941        -0.558248
 H         0.010258        -1.394934         0.090709
 H        -0.707136         0.141930         0.187332
 H        -0.301315        -0.441121        -1.413172
 H         1.461860         1.682444         1.807379
 H         1.840627         0.000088         1.949441
 H         4.466480         0.942488         2.149024
 H         3.869288         2.926556         0.762967
 H         4.659016         1.919227        -0.596214
 H         1.493575         1.198537        -2.139917
 H         3.210760        -0.780050        -1.092928
