19
Iteration:  3172charge 0 multiplicity 1
 C         0.233984        -0.581820        -0.577516
 C         1.341861         0.330835        -0.184174
 C         1.808503         0.619653         1.260612
 C         3.237861         0.810494         0.723736
 O         4.408681         0.243688         1.323594
 C         3.491865         2.223322         0.335884
 O         2.591205         2.567893        -0.748232
 C         2.043428         1.325246        -1.171033
 C         2.821370         0.130581        -0.710108
 H         0.258451        -1.521596        -0.037317
 H        -0.666596        -0.041431        -0.307128
 H         0.022982        -0.806811        -1.631496
 H         1.431409         1.458624         1.749590
 H         1.463825        -0.230671         1.869111
 H         4.287914        -0.140322         2.238207
 H         3.317873         2.886653         1.238618
 H         4.506962         2.418699         0.097927
 H         1.755515         1.342504        -2.240153
 H         3.262140        -0.562959        -1.384405
