19
Iteration:   423charge 0 multiplicity 1
 C        -0.074002        -0.273008        -0.282243
 C         1.302229         0.381046        -0.086231
 C         1.981135         0.933757         1.246910
 C         3.392860         0.810463         0.586617
 O         4.311691         0.222655         1.480926
 C         3.688521         2.302835         0.091299
 O         2.618050         2.326652        -0.960938
 C         2.020530         1.035903        -1.236024
 C         2.748011        -0.015548        -0.536742
 H        -0.301965        -1.089756         0.410562
 H        -0.893766         0.439967        -0.110948
 H        -0.094562        -0.699678        -1.269786
 H         1.631996         1.854639         1.783567
 H         1.962277         0.016080         1.934865
 H         4.331564        -0.747135         1.226376
 H         3.446867         3.062930         0.883451
 H         4.715933         2.302406        -0.450063
 H         1.817656         0.999074        -2.367095
 H         3.179694        -0.951720        -0.834317
