19
Iteration:  4023
 C         0.186609        -0.471601        -0.747046
 C         1.314771         0.341593        -0.225321
 C         1.801933         0.515475         1.270583
 C         3.344194         0.787518         0.678463
 O         4.387896         0.243038         1.465837
 C         3.568749         2.383179         0.343693
 O         2.492224         2.563812        -0.785746
 C         2.046709         1.240998        -1.123563
 C         2.855249         0.115474        -0.566870
 H         0.123416        -1.517361        -0.301436
 H        -0.754345         0.005123        -0.555540
 H         0.415050        -0.715100        -1.816113
 H         1.267119         1.134170         2.036858
 H         1.967090        -0.419911         1.721421
 H         3.985993        -0.485191         1.903026
 H         3.366307         3.244604         1.048235
 H         4.564315         2.376121        -0.215176
 H         1.617940         1.258702        -2.163670
 H         3.328259        -0.650733        -1.161503
