19
Iteration:   183
 C         0.078576        -0.199783        -0.107546
 C         1.353974         0.364349         0.004601
 C         1.865594         0.967081         1.236585
 C         3.253978         0.835971         0.633167
 O         4.232309         0.220254         1.320031
 C         3.558208         2.147959         0.083136
 O         2.798521         2.337131        -1.095880
 C         2.109169         1.084765        -1.219236
 C         2.732714        -0.065364        -0.522150
 H         0.009878        -0.850118         0.859080
 H        -0.728838         0.546224         0.005375
 H        -0.037014        -0.824995        -1.039944
 H         1.481797         1.880799         1.608786
 H         1.620327         0.344883         2.099677
 H         4.353377        -0.700938         0.962350
 H         3.322552         2.917125         0.834372
 H         4.633095         2.199064        -0.235869
 H         1.692120         1.071529        -2.198483
 H         3.119637        -1.042725        -0.865200
