19
Iteration:  3746
 C         0.325847        -0.563570        -0.629007
 C         1.380646         0.348798        -0.232164
 C         1.838597         0.619681         1.259178
 C         3.292443         0.789147         0.735011
 O         4.278541         0.239064         1.510496
 C         3.444216         2.144026         0.352288
 O         2.534755         2.605537        -0.827902
 C         2.088727         1.363612        -1.145728
 C         2.849875         0.148582        -0.720098
 H         0.338538        -1.525401        -0.166294
 H        -0.723666        -0.080727        -0.279398
 H         0.221366        -0.614186        -1.721181
 H         1.381864         1.596127         1.774204
 H         1.719783        -0.294589         1.913948
 H         4.409979        -0.708930         1.185779
 H         3.010716         2.798731         1.061454
 H         4.386412         2.491413         0.020951
 H         1.577240         1.406686        -2.138574
 H         3.402580        -0.694820        -1.069860
