19
Iteration:   964
 C         0.083599        -0.293575        -0.485282
 C         1.407014         0.236575        -0.145274
 C         1.880435         0.815244         1.218242
 C         3.249723         0.810646         0.703326
 O         4.389244         0.305238         1.396222
 C         3.649225         2.115453         0.055262
 O         2.441020         2.419887        -0.656204
 C         2.058181         1.133688        -1.209904
 C         2.860562         0.031173        -0.571617
 H        -0.314226        -1.250669        -0.088404
 H        -0.582268         0.540538        -0.463454
 H         0.130029        -0.519610        -1.645070
 H         1.511342         1.873773         1.399511
 H         1.695563         0.154432         2.103931
 H         4.081835        -0.132119         2.182677
 H         3.655281         3.020805         0.727058
 H         4.627348         2.074822        -0.530396
 H         1.631254         1.219578        -2.266842
 H         3.395988        -0.698013        -1.097375
