19
Iteration:  4868charge 0 multiplicity 1
 C         0.017430        -0.371768        -0.631785
 C         1.450035         0.170547        -0.356003
 C         1.810282         0.485962         1.104507
 C         3.357231         0.803395         0.718925
 O         4.349507         0.295550         1.572772
 C         3.557003         2.279889         0.243513
 O         2.369288         2.595659        -0.590466
 C         2.177141         1.223290        -1.182772
 C         3.015826         0.118376        -0.638701
 H        -0.256558        -1.392839        -0.128453
 H        -0.696418         0.425927        -0.476175
 H        -0.208776        -0.529871        -1.708389
 H         1.096309         1.360642         1.397180
 H         1.884401        -0.226274         1.914312
 H         4.208345        -0.619100         1.733929
 H         3.459147         2.948006         1.148270
 H         4.470412         2.395070        -0.344719
 H         1.578384         1.351765        -2.086997
 H         3.728257        -0.403645        -1.314193
