19
Iteration:  4997
 C         0.131602        -0.528035        -0.679830
 C         1.350915         0.233948        -0.355070
 C         1.875883         0.633094         1.033443
 C         3.423547         0.822992         0.657363
 O         4.319883         0.310346         1.583380
 C         3.609219         2.226231         0.316216
 O         2.391578         2.504621        -0.476050
 C         2.066889         1.278118        -1.146947
 C         2.910244         0.127790        -0.803730
 H         0.006407        -1.355003        -0.072429
 H        -0.673036         0.102561        -0.199465
 H        -0.086964        -0.811658        -1.742963
 H         1.544024         1.639907         1.390729
 H         1.809043        -0.017359         1.947360
 H         3.813142        -0.076683         2.366107
 H         3.506240         2.861920         1.234020
 H         4.574626         2.512480        -0.221618
 H         1.826426         1.298179        -2.231363
 H         3.258400        -0.640715        -1.505107
