19
Iteration:  4102charge 0 multiplicity 1
 C         0.056089        -0.471769        -0.555340
 C         1.368994         0.309477        -0.306871
 C         1.861184         0.490615         1.178759
 C         3.344632         0.755149         0.744681
 O         4.382874         0.220429         1.498623
 C         3.465832         2.341411         0.345480
 O         2.439328         2.608730        -0.746197
 C         2.133218         1.231349        -1.209570
 C         3.004447         0.204885        -0.694197
 H         0.109627        -1.513137        -0.138445
 H        -0.788472         0.028161        -0.197258
 H        -0.063436        -0.459151        -1.662185
 H         1.396741         1.326132         1.731442
 H         1.657113        -0.415790         1.682469
 H         4.031136        -0.621146         1.751112
 H         3.199814         3.060844         1.149350
 H         4.476822         2.624599         0.019826
 H         1.928590         1.117585        -2.252324
 H         3.468129        -0.657867        -1.222770
