19
Iteration:    17charge 0 multiplicity 1
 C        -0.161215        -0.351853        -0.080667
 C         1.147517         0.551671        -0.057990
 C         1.980501         0.926969         1.196984
 C         3.360786         0.825159         0.548301
 O         4.229868         0.215415         1.410734
 C         3.811569         2.158292        -0.034836
 O         2.827177         2.341967        -1.086672
 C         2.046160         1.070606        -1.190800
 C         2.633585        -0.071034        -0.426307
 H        -0.036991        -1.040987         0.780599
 H        -1.075601         0.271038        -0.107936
 H        -0.282889        -1.054399        -0.930294
 H         1.707408         1.662238         1.961131
 H         2.068486        -0.021690         1.743879
 H         4.899481         0.904242         1.558609
 H         3.648569         2.902525         0.808214
 H         4.889319         2.275142        -0.312008
 H         1.830420         0.939277        -2.306005
 H         2.991176        -0.996591        -0.918390
