19
Iteration:   904
 C         0.203125        -0.449230        -0.302039
 C         1.336309         0.444754        -0.125416
 C         1.788870         0.718116         1.292024
 C         3.216032         0.796651         0.648019
 O         4.200352         0.198693         1.428553
 C         3.615302         2.141914         0.126756
 O         2.738855         2.455471        -0.910194
 C         2.013302         1.262721        -1.235067
 C         2.795706         0.095881        -0.686667
 H         0.404934        -1.352214         0.368829
 H        -0.823922        -0.005586        -0.015227
 H         0.219791        -0.870651        -1.305925
 H         1.344680         1.699538         1.675554
 H         1.905419        -0.139695         2.029598
 H         5.023955         0.760370         1.583063
 H         3.448118         2.781525         1.022379
 H         4.702743         2.190297        -0.022101
 H         1.518833         1.306535        -2.164982
 H         2.980938        -0.885845        -1.152554
