19
Iteration:  4463
 C         0.186467        -0.446260        -0.633422
 C         1.421175         0.215493        -0.284959
 C         1.827387         0.518335         1.189238
 C         3.297705         0.747988         0.736707
 O         4.348179         0.332669         1.511733
 C         3.481798         2.246365         0.357658
 O         2.464411         2.558056        -0.682768
 C         2.087500         1.339641        -1.212294
 C         2.901484         0.143081        -0.728537
 H         0.123584        -1.539475        -0.208531
 H        -0.662639         0.136822        -0.307040
 H         0.237104        -0.600973        -1.758494
 H         1.382410         1.420908         1.767592
 H         1.683659        -0.417601         1.762532
 H         4.231435        -0.582716         1.719084
 H         3.319124         3.002465         1.157750
 H         4.479718         2.420035        -0.098076
 H         1.688369         1.494728        -2.189071
 H         3.453847        -0.671641        -1.263437
