19
Iteration:  3028
 C         0.217713        -0.538767        -0.649380
 C         1.375777         0.298879        -0.140867
 C         1.838834         0.710825         1.370383
 C         3.262499         0.923981         0.697242
 O         4.308728         0.138461         1.262987
 C         3.501773         2.355499         0.301001
 O         2.594459         2.545046        -0.776267
 C         2.033739         1.189529        -1.157518
 C         2.849830         0.110562        -0.629694
 H         0.339034        -1.601216        -0.247179
 H        -0.792250        -0.323106        -0.248786
 H         0.177702        -0.499188        -1.718291
 H         1.397375         1.517209         1.925466
 H         1.625303        -0.184724         2.005203
 H         4.037789        -0.129839         2.190641
 H         3.377007         3.114149         1.168997
 H         4.585115         2.308371        -0.003304
 H         1.893167         1.112381        -2.239698
 H         3.328129        -0.768631        -1.188679
