19
Iteration:  3973charge 0 multiplicity 1
 C         0.089898        -0.488698        -0.600945
 C         1.405744         0.271721        -0.396441
 C         1.811442         0.667415         1.076889
 C         3.404095         0.813329         0.672377
 O         4.367300         0.285182         1.599524
 C         3.531103         2.306299         0.255272
 O         2.411858         2.520108        -0.515634
 C         2.112041         1.238377        -1.260827
 C         2.935796         0.073094        -0.722395
 H         0.146472        -1.381749         0.008383
 H        -0.709772         0.101682        -0.080945
 H        -0.118417        -0.995444        -1.558443
 H         1.329963         1.560554         1.492599
 H         1.497863        -0.260324         1.708563
 H         4.028781        -0.413982         2.223076
 H         3.493519         2.628670         1.311833
 H         4.483201         2.419352        -0.190916
 H         1.783797         1.616605        -2.209960
 H         3.499911        -0.649593        -1.396470
