19
Iteration:  3431charge 0 multiplicity 1
 C         0.226251        -0.529879        -0.716820
 C         1.398689         0.290796        -0.235958
 C         1.835450         0.620325         1.187759
 C         3.314091         0.808572         0.678777
 O         4.395481         0.280986         1.418211
 C         3.549365         2.186435         0.295709
 O         2.443126         2.552355        -0.498275
 C         2.020660         1.291786        -1.211122
 C         2.829433         0.103881        -0.723414
 H         0.430570        -1.595199        -0.272089
 H        -0.709372        -0.051459        -0.334604
 H         0.182311        -0.580209        -1.792765
 H         1.208017         1.405110         1.678017
 H         1.690785        -0.301980         1.779931
 H         3.996402         0.465217         2.295600
 H         3.720787         2.828302         1.285610
 H         4.432980         2.501713        -0.324014
 H         1.483595         1.491766        -2.133607
 H         3.439989        -0.676511        -1.262802
