19
Iteration:  2576charge 0 multiplicity 1
 C         0.080613        -0.500843        -0.475932
 C         1.377701         0.265462        -0.228136
 C         1.894174         0.638048         1.158856
 C         3.322434         0.793983         0.666653
 O         4.377567         0.203330         1.468680
 C         3.530688         2.315991         0.243540
 O         2.447386         2.546545        -0.680935
 C         2.096478         1.224724        -1.195673
 C         2.936833         0.201794        -0.732228
 H        -0.010894        -1.334143         0.294415
 H        -0.746988         0.231645        -0.224156
 H        -0.065764        -0.837866        -1.545147
 H         1.271563         1.434371         1.526216
 H         1.864040        -0.222646         1.879606
 H         3.894773        -0.568762         1.743958
 H         3.372834         2.864561         1.176183
 H         4.536876         2.450573        -0.193436
 H         1.709696         1.284048        -2.229863
 H         3.492347        -0.482990        -1.342375
