19
Iteration:  3751
 C         0.292976        -0.584286        -0.680198
 C         1.377663         0.372839        -0.173720
 C         1.823118         0.667957         1.305323
 C         3.274711         0.765816         0.707914
 O         4.324681         0.201765         1.491627
 C         3.425877         2.197266         0.346208
 O         2.557651         2.587025        -0.835141
 C         2.085162         1.340822        -1.157544
 C         2.834645         0.160668        -0.664524
 H         0.440747        -1.584274        -0.158607
 H        -0.643632        -0.235703        -0.460754
 H         0.264343        -0.572256        -1.778686
 H         1.275951         1.421799         1.793542
 H         1.668687        -0.281228         1.789788
 H         4.470437        -0.696681         1.252396
 H         3.007720         3.023383         1.011416
 H         4.449864         2.596223         0.080804
 H         1.601843         1.438621        -2.101430
 H         3.358482        -0.693411        -1.195416
