19
Iteration:  4382
 C         0.308297        -0.584800        -0.625127
 C         1.381294         0.303326        -0.275902
 C         1.818668         0.580905         1.218945
 C         3.283887         0.777217         0.672346
 O         4.255469         0.198059         1.477525
 C         3.459025         2.249054         0.361958
 O         2.563208         2.661365        -0.710713
 C         2.017965         1.316817        -1.131799
 C         2.894143         0.187471        -0.711580
 H         0.487406        -1.483938        -0.032194
 H        -0.690749        -0.194957        -0.229423
 H         0.213072        -0.806066        -1.705017
 H         1.462639         1.520179         1.617697
 H         1.801156        -0.191061         2.007443
 H         4.184971        -0.755378         1.275965
 H         3.221827         2.880047         1.221141
 H         4.503683         2.471021         0.000060
 H         1.767319         1.475987        -2.211795
 H         3.368139        -0.535109        -1.381308
