19
Iteration:   850
 C         0.099108        -0.319196        -0.404193
 C         1.390748         0.288544        -0.100883
 C         1.789712         0.825736         1.240194
 C         3.305782         0.800150         0.653734
 O         4.351568         0.260222         1.387614
 C         3.600042         2.267336         0.156538
 O         2.599354         2.430093        -0.903388
 C         2.036193         1.148863        -1.159272
 C         2.829923        -0.014579        -0.531972
 H         0.007787        -1.370770        -0.050392
 H        -0.756828         0.273815         0.024695
 H        -0.083839        -0.471091        -1.461857
 H         1.356756         1.844112         1.498117
 H         1.775394        -0.003600         2.013631
 H         4.228658        -0.738421         1.461574
 H         3.461918         3.068314         0.896421
 H         4.673023         2.156458        -0.162125
 H         1.600642         1.097430        -2.152951
 H         3.288653        -0.779560        -1.133637
