19
Iteration:   642
 C         0.067493        -0.245719        -0.342817
 C         1.365537         0.296666        -0.139275
 C         1.844081         0.858520         1.240143
 C         3.243608         0.809483         0.690034
 O         4.372720         0.283917         1.488351
 C         3.582478         2.137589         0.093627
 O         2.581423         2.419994        -0.908503
 C         2.071289         1.109403        -1.214314
 C         2.791250        -0.022829        -0.570673
 H        -0.044105        -1.229551         0.217074
 H        -0.651834         0.551427        -0.034131
 H        -0.078579        -0.497181        -1.407411
 H         1.530887         1.856510         1.442145
 H         1.808041         0.146788         2.064224
 H         4.852470        -0.367593         0.985481
 H         3.632914         2.917765         0.921715
 H         4.627855         2.026888        -0.338264
 H         1.699208         1.088070        -2.268273
 H         3.146240        -0.991863        -1.006059
