19
Iteration:   462charge 0 multiplicity 1
 C         0.021538        -0.428798        -0.156896
 C         1.309632         0.444633        -0.093231
 C         1.741186         0.789879         1.312085
 C         3.196842         0.791812         0.738812
 O         4.420077         0.267592         1.356434
 C         3.696096         2.141705         0.111267
 O         2.848241         2.359126        -1.101299
 C         2.034790         1.239948        -1.269314
 C         2.669410         0.036090        -0.629018
 H         0.253226        -1.314550         0.437156
 H        -0.864681         0.224075         0.131177
 H        -0.303408        -0.571826        -1.225191
 H         1.372264         1.669326         1.869097
 H         1.409278        -0.030442         1.952568
 H         4.362984         0.490221         2.288461
 H         3.749460         3.018818         0.756127
 H         4.696767         2.120864        -0.197024
 H         1.442805         1.185536        -2.236411
 H         2.947425        -0.925285        -1.107364
