19
Iteration:  2691charge 0 multiplicity 1
 C         0.060289        -0.335854        -0.457427
 C         1.441039         0.224289        -0.324674
 C         1.839625         0.707737         1.120006
 C         3.386857         0.785931         0.637894
 O         4.378170         0.295218         1.527302
 C         3.541864         2.296271         0.192945
 O         2.343416         2.439252        -0.559241
 C         2.110774         1.186720        -1.172279
 C         2.972861         0.013207        -0.723146
 H        -0.037993        -1.371212        -0.153880
 H        -0.817384         0.316051        -0.044635
 H        -0.121394        -0.295299        -1.551867
 H         1.277685         1.699075         1.290000
 H         1.685266        -0.146955         1.784118
 H         4.209836        -0.589730         1.862857
 H         3.485177         2.995172         1.069122
 H         4.388848         2.523865        -0.608118
 H         1.846332         1.281868        -2.276004
 H         3.679825        -0.624364        -1.197034
