19
Iteration:  2882charge 0 multiplicity 1
 C         0.132190        -0.530903        -0.648780
 C         1.298862         0.317743        -0.182643
 C         1.765354         0.590366         1.277072
 C         3.245994         0.772794         0.705556
 O         4.479801         0.326568         1.365043
 C         3.593049         2.219993         0.363970
 O         2.641204         2.571752        -0.873025
 C         2.002749         1.338528        -1.111625
 C         2.788895         0.135356        -0.593868
 H         0.225136        -1.552302         0.003727
 H        -0.852499        -0.193800        -0.381898
 H         0.153234        -0.903321        -1.719289
 H         1.293370         1.407252         1.895282
 H         1.694108        -0.387637         1.836392
 H         4.159257        -0.427713         1.852977
 H         3.396484         2.885701         1.252422
 H         4.645949         2.191458        -0.088606
 H         1.481268         1.096398        -2.070378
 H         3.330198        -0.518213        -1.240979
