19
Iteration:   706
 C         0.129806        -0.376746        -0.373926
 C         1.332283         0.384118        -0.113343
 C         1.792910         0.838374         1.236602
 C         3.249681         0.817103         0.656615
 O         4.274095         0.185066         1.465922
 C         3.750130         2.137962         0.024755
 O         2.639701         2.457217        -0.876203
 C         2.020842         1.160070        -1.172990
 C         2.760270         0.021114        -0.596893
 H         0.193635        -1.338863         0.156522
 H        -0.647099         0.122253         0.233457
 H        -0.182204        -0.515717        -1.373273
 H         1.402095         1.730776         1.763349
 H         1.881845         0.040737         2.002620
 H         4.635905         0.947849         1.970574
 H         3.618333         3.015477         0.658245
 H         4.660346         1.872467        -0.578930
 H         1.519828         0.969016        -2.140566
 H         3.244485        -0.827815        -1.129384
