19
Iteration:  4204
 C         0.322212        -0.625678        -0.581769
 C         1.437808         0.295496        -0.228585
 C         1.822321         0.633428         1.255119
 C         3.225677         0.776167         0.693163
 O         4.226303         0.099505         1.376178
 C         3.458391         2.344456         0.455659
 O         2.626437         2.624662        -0.810079
 C         1.954477         1.344385        -1.155897
 C         2.917405         0.257213        -0.674109
 H         0.194373        -1.498625         0.005077
 H        -0.635521         0.000212        -0.373463
 H         0.436542        -0.978531        -1.589964
 H         1.330462         1.485005         1.631733
 H         1.877537        -0.256560         1.973542
 H         4.321674        -0.863300         1.102083
 H         2.993447         2.802438         1.338408
 H         4.422925         2.765183         0.176856
 H         1.709353         1.197401        -2.238208
 H         3.425742        -0.454842        -1.312983
