19
Iteration:  1806
 C         0.056660        -0.384649        -0.470208
 C         1.408532         0.219617        -0.314510
 C         1.811521         0.502978         1.153700
 C         3.309346         0.788770         0.715370
 O         4.383867         0.354103         1.520121
 C         3.546491         2.266707         0.215980
 O         2.542114         2.544038        -0.751327
 C         2.018383         1.270537        -1.204498
 C         2.930537         0.104768        -0.594708
 H        -0.112967        -1.336206         0.121591
 H        -0.705644         0.308396        -0.048789
 H        -0.264213        -0.607851        -1.576600
 H         1.317295         1.301674         1.691492
 H         1.759441        -0.381944         1.821096
 H         4.468111        -0.604021         1.289858
 H         3.472693         2.882188         1.095318
 H         4.557500         2.309799        -0.316223
 H         1.637962         1.221194        -2.233621
 H         3.460834        -0.597096        -1.221060
