19
Iteration:  4791charge 0 multiplicity 1
 C         0.172340        -0.690327        -0.692892
 C         1.234864         0.334622        -0.233455
 C         1.701053         0.584269         1.256200
 C         3.234177         0.855653         0.722854
 O         4.462699         0.189002         1.383133
 C         3.555001         2.296650         0.420771
 O         2.670516         2.548375        -0.777522
 C         2.071436         1.363884        -1.155083
 C         2.802394         0.295958        -0.646794
 H         0.456658        -1.699984        -0.180698
 H        -0.872261        -0.552751        -0.488297
 H         0.324935        -0.925306        -1.783116
 H         1.128826         1.470333         1.661602
 H         1.710829        -0.339374         1.747698
 H         4.068509        -0.587256         1.781246
 H         3.491620         3.026553         1.262452
 H         4.589772         2.396387         0.194025
 H         1.771054         1.637224        -2.118855
 H         3.328000        -0.618752        -0.894140
