19
Iteration:  3030charge 0 multiplicity 1
 C         0.229501        -0.551918        -0.627725
 C         1.367204         0.280865        -0.134587
 C         1.836791         0.718239         1.361223
 C         3.258195         0.913323         0.720688
 O         4.292439         0.142192         1.238084
 C         3.491566         2.356455         0.310841
 O         2.615122         2.540594        -0.778866
 C         2.038184         1.183585        -1.176440
 C         2.861098         0.129335        -0.629093
 H         0.346835        -1.589844        -0.292581
 H        -0.823973        -0.219705        -0.251928
 H         0.150324        -0.516179        -1.765086
 H         1.393630         1.537982         1.975825
 H         1.645498        -0.209591         2.036216
 H         4.022091        -0.080592         2.156267
 H         3.394263         3.082672         1.174455
 H         4.606794         2.372072         0.030198
 H         1.841460         1.176902        -2.245349
 H         3.293742        -0.751096        -1.139164
