19
Iteration:  1943
 C         0.056589        -0.415080        -0.467380
 C         1.460132         0.200397        -0.232174
 C         1.851563         0.684377         1.160072
 C         3.294431         0.803144         0.651741
 O         4.396142         0.220795         1.449425
 C         3.503288         2.280406         0.257829
 O         2.420085         2.524869        -0.701275
 C         2.054264         1.218227        -1.195226
 C         2.953803         0.114642        -0.643080
 H         0.177851        -1.552480        -0.232722
 H        -0.875231         0.078966         0.032050
 H        -0.105549        -0.206385        -1.509366
 H         1.503451         1.680532         1.517267
 H         1.715405        -0.055972         1.924535
 H         4.364617        -0.758881         1.383329
 H         3.267495         3.017171         1.114623
 H         4.588058         2.548581        -0.102155
 H         1.899900         1.172342        -2.261099
 H         3.693760        -0.406165        -1.281039
