19
Iteration:  2414charge 0 multiplicity 1
 C         0.196904        -0.506233        -0.628306
 C         1.372617         0.281416        -0.242460
 C         1.846752         0.636589         1.205877
 C         3.320755         0.761592         0.720768
 O         4.445912         0.290006         1.497127
 C         3.611030         2.177682         0.110622
 O         2.351913         2.528737        -0.568508
 C         2.012666         1.326140        -1.142202
 C         2.844005         0.166845        -0.664691
 H         0.023369        -1.517827        -0.000496
 H        -0.752768         0.158585        -0.364015
 H         0.159882        -0.720596        -1.689125
 H         1.459190         1.615798         1.664069
 H         1.692141        -0.243962         1.895323
 H         4.337880        -0.592718         1.906851
 H         3.862958         3.020996         0.781945
 H         4.391237         2.018331        -0.701895
 H         1.678111         1.466467        -2.233913
 H         3.304513        -0.345913        -1.486311
