19
Iteration:   761charge 0 multiplicity 1
 C         0.061615        -0.448045        -0.290829
 C         1.287729         0.414654        -0.110985
 C         1.781233         0.799574         1.261531
 C         3.285685         0.775742         0.661628
 O         4.336497         0.229313         1.415421
 C         3.612393         2.242148         0.145251
 O         2.732768         2.416342        -0.962815
 C         2.082809         1.223604        -1.210817
 C         2.769974         0.047807        -0.569669
 H        -0.110505        -1.174195         0.485723
 H        -0.760510         0.216498        -0.508827
 H         0.309294        -0.989208        -1.163821
 H         1.655113         1.803260         1.696723
 H         1.635074        -0.038583         1.970111
 H         4.191049        -0.753051         1.275698
 H         3.430981         3.086396         0.818666
 H         4.605905         2.527147        -0.198637
 H         1.513125         1.152211        -2.186852
 H         3.230698        -0.743525        -1.134287
