19
Iteration:   438
 C         0.017804        -0.328244        -0.193718
 C         1.334266         0.450093        -0.100598
 C         1.900810         0.834107         1.253149
 C         3.311727         0.803510         0.665146
 O         4.335213         0.260403         1.404633
 C         3.595556         2.142253         0.080990
 O         2.732245         2.383519        -1.069226
 C         2.060651         1.157486        -1.231158
 C         2.712024        -0.011801        -0.539327
 H         0.041756        -1.139675         0.525457
 H        -0.773723         0.357039        -0.058359
 H        -0.213018        -0.642188        -1.212127
 H         1.671467         1.771017         1.777326
 H         1.781308         0.087467         2.043592
 H         3.952887        -0.554397         1.773948
 H         3.372688         2.891108         0.824069
 H         4.623325         2.370951        -0.150616
 H         1.573729         0.983833        -2.118952
 H         3.085990        -0.914409        -1.065913
