19
Iteration:  3478
 C         0.253503        -0.522319        -0.483734
 C         1.498519         0.224276        -0.239940
 C         1.750835         0.542879         1.220915
 C         3.209006         0.870312         0.665933
 O         4.252658         0.068468         1.271992
 C         3.386219         2.360832         0.431374
 O         2.513926         2.558948        -0.718403
 C         2.156233         1.307113        -1.184902
 C         2.980950         0.259674        -0.749201
 H         0.141741        -1.396435         0.293679
 H        -0.482657         0.223703        -0.460599
 H         0.387789        -0.941747        -1.530211
 H         0.981770         1.235112         1.700111
 H         1.739517        -0.447133         1.889820
 H         4.688143         0.445085         2.011660
 H         3.135292         2.893641         1.361466
 H         4.542593         2.694370         0.273630
 H         1.703512         1.388263        -2.178482
 H         3.450862        -0.566837        -1.220472
