19
Iteration:  2942charge 0 multiplicity 1
 C         0.116773        -0.447262        -0.508180
 C         1.416576         0.305483        -0.233931
 C         1.830021         0.590173         1.203695
 C         3.301893         0.815355         0.720691
 O         4.389905         0.196151         1.520187
 C         3.472628         2.293835         0.252375
 O         2.477073         2.495407        -0.752331
 C         2.144654         1.260249        -1.230146
 C         2.854391         0.187257        -0.660190
 H         0.053184        -1.293680         0.138353
 H        -0.722039         0.305272        -0.445562
 H         0.068500        -0.912189        -1.502622
 H         1.501962         1.542456         1.646610
 H         1.591701        -0.376203         1.764735
 H         4.471879        -0.715111         1.143862
 H         3.382602         3.027754         1.099907
 H         4.433216         2.518160        -0.208165
 H         1.611202         1.365707        -2.178104
 H         3.474459        -0.503367        -1.335709
