19
Iteration:  3226
 C         0.230146        -0.511986        -0.500856
 C         1.419913         0.322926        -0.206976
 C         1.850137         0.597926         1.171295
 C         3.259540         0.832710         0.649081
 O         4.241261         0.089139         1.511828
 C         3.476037         2.297809         0.289415
 O         2.498735         2.557270        -0.683012
 C         2.068014         1.326785        -1.213192
 C         2.921969         0.188114        -0.746534
 H         0.433442        -1.574160         0.029269
 H        -0.662382        -0.093315        -0.017029
 H         0.062674        -0.836439        -1.560249
 H         1.380554         1.503675         1.568838
 H         1.663081        -0.320576         1.801404
 H         5.102653         0.277602         0.987401
 H         3.230144         2.951986         1.243644
 H         4.520721         2.347744        -0.177252
 H         1.676585         1.453672        -2.253915
 H         3.416427        -0.620903        -1.250037
