19
Iteration:  3300
 C         0.192873        -0.461436        -0.686679
 C         1.396421         0.264920        -0.204932
 C         1.877443         0.490310         1.242767
 C         3.289818         0.760466         0.691630
 O         4.371158         0.239378         1.423166
 C         3.469685         2.237037         0.274371
 O         2.500856         2.595339        -0.662584
 C         2.032036         1.318379        -1.141144
 C         2.859080         0.184035        -0.685782
 H         0.073468        -1.433479        -0.094782
 H        -0.670900         0.097175        -0.472399
 H         0.373375        -0.795183        -1.651218
 H         1.422600         1.396426         1.796687
 H         2.026114        -0.453096         1.785495
 H         4.390696         0.654687         2.270362
 H         3.329279         2.992067         0.950112
 H         4.357388         2.135282        -0.304129
 H         1.571983         1.286144        -2.156899
 H         3.146034        -0.674806        -1.240007
