19
Iteration:  2913charge 0 multiplicity 1
 C         0.209029        -0.485358        -0.651256
 C         1.394800         0.323931        -0.122721
 C         1.853222         0.682478         1.282417
 C         3.231052         0.844978         0.670236
 O         4.391886         0.239989         1.295273
 C         3.461266         2.287355         0.468712
 O         2.595005         2.496840        -0.861608
 C         2.126518         1.233174        -1.189465
 C         2.732995         0.088824        -0.542167
 H         0.146461        -1.343861         0.092045
 H        -0.792111        -0.028542        -0.596966
 H         0.409702        -0.791842        -1.738603
 H         1.499174         1.564726         1.864866
 H         1.780898        -0.129137         1.963275
 H         4.192825        -0.688938         0.986176
 H         3.130432         2.874818         1.284932
 H         4.451493         2.634512         0.138132
 H         1.404775         1.247741        -2.001698
 H         3.265506        -0.745248        -0.990249
