19
Iteration:  4585
 C         0.208983        -0.486523        -0.696254
 C         1.490302         0.189334        -0.232708
 C         1.840692         0.600506         1.173735
 C         3.280193         0.841155         0.663976
 O         4.227722         0.275095         1.561186
 C         3.614447         2.217635         0.190640
 O         2.448243         2.590273        -0.545765
 C         1.982941         1.312822        -1.111852
 C         2.941412         0.120584        -0.735967
 H         0.441572        -1.601913        -0.519400
 H        -0.702437        -0.114225        -0.231402
 H         0.021337        -0.344423        -1.753398
 H         1.342345         1.498492         1.616466
 H         1.805008        -0.212928         1.924952
 H         3.888223        -0.605997         1.778198
 H         3.796530         2.964366         1.002421
 H         4.518076         2.288446        -0.466064
 H         1.664957         1.213110        -2.165831
 H         3.477306        -0.387721        -1.503967
