19
Iteration:  1939
 C         0.057999        -0.460035        -0.447682
 C         1.466740         0.244209        -0.218414
 C         1.870189         0.697875         1.142598
 C         3.302194         0.773422         0.659413
 O         4.398259         0.216605         1.453703
 C         3.483470         2.251865         0.257762
 O         2.449593         2.545212        -0.726016
 C         2.020448         1.208648        -1.205893
 C         2.926309         0.140176        -0.624915
 H         0.195073        -1.515065        -0.200452
 H        -0.743918         0.100883         0.035575
 H        -0.051975        -0.231468        -1.547614
 H         1.563980         1.675648         1.460224
 H         1.654912        -0.149194         1.853793
 H         4.262469        -0.734633         1.359765
 H         3.267193         2.910690         1.081528
 H         4.491410         2.627548         0.132410
 H         1.949419         1.215314        -2.303235
 H         3.695904        -0.281506        -1.332189
