19
Iteration:  3161
 C         0.180064        -0.489989        -0.638268
 C         1.405141         0.329120        -0.205563
 C         1.783639         0.659594         1.277376
 C         3.312769         0.772287         0.659439
 O         4.455617         0.283920         1.341160
 C         3.481360         2.221018         0.307194
 O         2.519844         2.564043        -0.677981
 C         2.041268         1.227312        -1.185134
 C         2.831512         0.135420        -0.610741
 H         0.261702        -1.465983        -0.180750
 H        -0.785575        -0.119508        -0.340047
 H         0.343252        -0.630711        -1.707838
 H         1.313947         1.482518         1.693746
 H         1.834745        -0.246667         1.913619
 H         3.877625        -0.406044         1.821757
 H         3.274385         2.908412         1.175243
 H         4.472773         2.224957        -0.079491
 H         1.610738         1.295796        -2.196784
 H         3.146790        -0.775294        -1.029416
