19
Iteration:  3081charge 0 multiplicity 1
 C         0.122997        -0.546791        -0.439732
 C         1.307070         0.387382        -0.267470
 C         1.894401         0.588460         1.146763
 C         3.312352         0.780715         0.652065
 O         4.314311         0.171511         1.488842
 C         3.520685         2.250089         0.322386
 O         2.542922         2.541014        -0.731948
 C         2.119739         1.335704        -1.275304
 C         2.829950         0.137599        -0.716458
 H         0.220749        -1.436646         0.266482
 H        -0.788746        -0.023789        -0.365199
 H         0.042514        -0.977772        -1.395208
 H         1.470249         1.313158         1.831779
 H         1.740755        -0.346965         1.624513
 H         4.724279         1.020851         1.823101
 H         3.272988         2.833351         1.205432
 H         4.545453         2.483126         0.140904
 H         1.729854         1.365621        -2.290779
 H         3.417646        -0.747804        -1.089181
