19
Iteration:  3283charge 0 multiplicity 1
 C         0.182557        -0.454752        -0.776199
 C         1.424207         0.278139        -0.153972
 C         1.784991         0.567172         1.271919
 C         3.306973         0.808631         0.680283
 O         4.468681         0.317673         1.416547
 C         3.609996         2.211615         0.228620
 O         2.389179         2.513740        -0.622817
 C         1.962281         1.296642        -1.123146
 C         2.839582         0.082520        -0.636837
 H         0.019815        -1.464865        -0.349195
 H        -0.785419         0.156163        -0.636542
 H         0.359795        -0.483649        -1.933638
 H         1.380254         1.386168         1.811980
 H         1.618224        -0.428136         1.781220
 H         4.277619         0.102184         2.311793
 H         3.775250         2.901902         1.196292
 H         4.613283         2.227774        -0.351575
 H         1.569331         1.417576        -2.119760
 H         3.497199        -0.512860        -1.358741
