19
Iteration:  1245charge 0 multiplicity 1
 C         0.110681        -0.393048        -0.597798
 C         1.353882         0.238238        -0.214959
 C         1.829705         0.643222         1.175135
 C         3.281047         0.834219         0.626671
 O         4.386076         0.434857         1.569256
 C         3.727863         2.145362         0.106413
 O         2.441544         2.491643        -0.582552
 C         2.057816         1.227336        -1.144552
 C         2.801865         0.043653        -0.630757
 H         0.195903        -1.488332        -0.503340
 H        -0.800252         0.119236        -0.184800
 H        -0.190483        -0.391841        -1.677552
 H         1.298883         1.359557         1.776236
 H         1.731901        -0.287517         1.797992
 H         4.363712        -0.574121         1.389581
 H         3.949197         2.968738         0.802804
 H         4.515541         2.070598        -0.671954
 H         1.680948         1.287263        -2.148442
 H         3.437147        -0.663132        -1.259968
