19
Iteration:  4847charge 0 multiplicity 1
 C         0.154266        -0.359200        -0.682789
 C         1.444093         0.243783        -0.318842
 C         1.952253         0.640921         1.168739
 C         3.341224         0.763798         0.709087
 O         4.348517         0.253312         1.631346
 C         3.507336         2.313166         0.254367
 O         2.365098         2.453116        -0.589599
 C         1.988514         1.232821        -1.198050
 C         2.971363         0.123831        -0.752486
 H        -0.140191        -1.355332        -0.131797
 H        -0.576485         0.411023        -0.569128
 H        -0.002368        -0.527549        -1.738350
 H         1.496072         1.431340         1.841910
 H         1.739694        -0.266228         1.708577
 H         3.968858        -0.661287         1.882649
 H         3.306284         2.903610         1.161332
 H         4.443981         2.419227        -0.280711
 H         1.918752         1.453391        -2.286921
 H         3.499721        -0.537624        -1.470963
