19
Iteration:  2707charge 0 multiplicity 1
 C         0.100551        -0.347682        -0.492726
 C         1.390068         0.256187        -0.300010
 C         1.822506         0.651269         1.127191
 C         3.304927         0.774590         0.698583
 O         4.457069         0.256862         1.468045
 C         3.501055         2.267094         0.232150
 O         2.366585         2.471629        -0.652689
 C         2.127864         1.185552        -1.272153
 C         2.982487         0.129102        -0.607163
 H        -0.038661        -1.229763         0.191892
 H        -0.508732         0.374210        -0.042676
 H        -0.352443        -0.619114        -1.435003
 H         1.445388         1.582750         1.571842
 H         1.486957        -0.152219         1.820584
 H         4.191004        -0.483941         1.989467
 H         3.403033         2.981633         1.028951
 H         4.490132         2.387871        -0.110411
 H         1.893799         1.104245        -2.311028
 H         3.441397        -0.512841        -1.446271
