19
Iteration:  4794
 C         0.151954        -0.685044        -0.725516
 C         1.249442         0.323149        -0.220452
 C         1.687764         0.600383         1.243115
 C         3.246157         0.850189         0.738683
 O         4.477891         0.204461         1.371494
 C         3.559625         2.280649         0.429030
 O         2.667038         2.537893        -0.773307
 C         2.080127         1.356367        -1.165285
 C         2.787061         0.320818        -0.614440
 H         0.507767        -1.630108        -0.137790
 H        -0.882638        -0.548816        -0.543403
 H         0.183981        -1.038481        -1.713299
 H         1.133094         1.430127         1.677971
 H         1.686243        -0.389312         1.740276
 H         4.032625        -0.594050         1.844711
 H         3.508868         3.010479         1.253403
 H         4.669866         2.349481         0.168897
 H         1.621619         1.596723        -2.164626
 H         3.459436        -0.527097        -0.987656
