19
Iteration:  4567
 C         0.230078        -0.530946        -0.783306
 C         1.376152         0.238915        -0.244729
 C         1.774022         0.519704         1.233794
 C         3.274550         0.759270         0.722445
 O         4.363763         0.259182         1.538921
 C         3.660446         2.276240         0.112740
 O         2.398490         2.592865        -0.611497
 C         2.053693         1.353286        -1.074232
 C         2.910992         0.205471        -0.584785
 H         0.098273        -1.541379        -0.576856
 H        -0.701601         0.115656        -0.452398
 H         0.142994        -0.315291        -1.847958
 H         1.126701         1.279419         1.641469
 H         1.619087        -0.373871         1.903148
 H         4.131275        -0.564318         2.015446
 H         3.914127         3.110382         0.736824
 H         4.368900         1.999504        -0.650258
 H         1.608049         1.341136        -2.052222
 H         3.517219        -0.457506        -1.191772
