19
Iteration:   315charge 0 multiplicity 1
 C         0.115563        -0.262438        -0.115186
 C         1.346926         0.417321        -0.082528
 C         1.812812         0.930937         1.303463
 C         3.261396         0.862134         0.657707
 O         4.248788         0.158446         1.278814
 C         3.632131         2.234684         0.054500
 O         2.767108         2.363418        -1.036217
 C         2.078954         1.049203        -1.233886
 C         2.738470        -0.011787        -0.514358
 H         0.214726        -1.203928         0.479378
 H        -0.651245         0.381540         0.333181
 H        -0.172920        -0.584184        -1.127684
 H         1.386115         1.912800         1.390280
 H         1.660544         0.170807         2.109648
 H         3.933531        -0.752639         1.537411
 H         3.472301         2.991536         0.822618
 H         4.680410         2.216025        -0.146794
 H         1.651825         0.921731        -2.324275
 H         3.123096        -0.962768        -0.873505
