19
Iteration:   615charge 0 multiplicity 1
 C        -0.071394        -0.354910        -0.360470
 C         1.242339         0.407723        -0.110759
 C         1.869658         0.816255         1.298056
 C         3.290097         0.879756         0.706985
 O         4.353759         0.058619         1.381093
 C         3.574329         2.354158         0.094025
 O         2.724043         2.363367        -1.035983
 C         2.080616         1.096134        -1.162382
 C         2.798502         0.068049        -0.451017
 H        -0.165278        -1.080535         0.410992
 H        -0.949652         0.276124        -0.453915
 H         0.208435        -0.892790        -1.264141
 H         1.490033         1.786487         1.757718
 H         1.932759        -0.015555         2.021286
 H         5.224306         0.329857         1.109470
 H         3.175802         3.048691         0.811413
 H         4.716374         2.499127        -0.145807
 H         1.885135         1.010898        -2.233082
 H         3.206130        -0.847404        -0.782265
