19
Iteration:  1323
 C         0.131937        -0.666244        -0.421521
 C         1.276649         0.380575        -0.209772
 C         1.804647         0.574953         1.256699
 C         3.266233         0.888142         0.752061
 O         4.292127         0.205022         1.434956
 C         3.531240         2.250018         0.338116
 O         2.723770         2.613834        -0.855261
 C         2.151961         1.331335        -1.262518
 C         2.732642         0.141605        -0.683482
 H        -0.059790        -1.409556         0.370542
 H        -0.847508        -0.201824        -0.355386
 H         0.358758        -1.163548        -1.405304
 H         1.287824         1.356341         1.779543
 H         1.825099        -0.461890         1.572499
 H         4.918224        -0.119895         0.750312
 H         3.209139         2.970583         1.086727
 H         4.549631         2.493882         0.096715
 H         1.835722         1.427628        -2.286635
 H         3.304975        -0.705885        -1.183280
