19
Iteration:  4710
 C         0.101984        -0.406041        -0.689945
 C         1.418122         0.235282        -0.311366
 C         1.766598         0.550452         1.128832
 C         3.279251         0.756190         0.684534
 O         4.345956         0.421825         1.435751
 C         3.572577         2.200417         0.268596
 O         2.436569         2.534752        -0.475147
 C         2.120888         1.229697        -1.142609
 C         2.997471         0.112093        -0.649033
 H        -0.064324        -1.317275        -0.149100
 H        -0.739968         0.383523        -0.462188
 H         0.124245        -0.601071        -1.810797
 H         1.223558         1.313859         1.662446
 H         1.488633        -0.408282         1.674327
 H         4.369753        -0.402762         1.875744
 H         3.608925         2.819931         1.142707
 H         4.468414         2.142700        -0.338864
 H         1.818363         1.412226        -2.223486
 H         3.480235        -0.694211        -1.264805
