19
Iteration:   898charge 0 multiplicity 1
 C         0.230005        -0.461426        -0.247420
 C         1.300482         0.470970        -0.115796
 C         1.774109         0.701575         1.247541
 C         3.211452         0.795818         0.652391
 O         4.220230         0.182239         1.399790
 C         3.620939         2.186859         0.140837
 O         2.782240         2.464631        -0.940366
 C         2.034353         1.273696        -1.202097
 C         2.734346         0.063283        -0.665959
 H         0.346711        -1.427857         0.219901
 H        -0.715287        -0.063696        -0.071841
 H         0.169523        -0.935111        -1.276088
 H         1.463712         1.634164         1.687853
 H         1.764588        -0.264847         1.751491
 H         4.736489         0.934860         1.808018
 H         3.417263         2.687141         1.122263
 H         4.699976         2.437937        -0.115502
 H         1.522460         1.294861        -2.202891
 H         3.066129        -0.935360        -1.063998
