19
Iteration:  3534charge 0 multiplicity 1
 C         0.214774        -0.491735        -0.780229
 C         1.347294         0.253762        -0.286021
 C         1.856643         0.563336         1.264401
 C         3.262395         0.802691         0.716535
 O         4.450638         0.309705         1.417480
 C         3.565297         2.240108         0.233366
 O         2.440224         2.557241        -0.571843
 C         2.015500         1.315997        -1.103956
 C         2.802422         0.092491        -0.648989
 H         0.363302        -1.542439        -0.415519
 H        -0.706793        -0.074999        -0.407073
 H         0.350257        -0.545263        -1.918806
 H         1.314740         1.403882         1.783651
 H         1.836227        -0.428260         1.864636
 H         4.155665         0.337404         2.378059
 H         3.572970         2.878237         1.068948
 H         4.514504         2.047514        -0.320744
 H         1.600474         1.457037        -2.132749
 H         3.351448        -0.636196        -1.233785
