19
Iteration:  4826charge 0 multiplicity 1
 C         0.222765        -0.436325        -0.693150
 C         1.418969         0.256807        -0.161005
 C         1.813580         0.583785         1.172295
 C         3.264570         0.753949         0.619260
 O         4.332304         0.317004         1.436681
 C         3.514065         2.234376         0.353121
 O         2.480937         2.564689        -0.618974
 C         2.160966         1.309304        -1.188546
 C         2.832681         0.109847        -0.697940
 H         0.237943        -1.415558        -0.066593
 H        -0.733563         0.012503        -0.579889
 H         0.349171        -0.766628        -1.692263
 H         1.340643         1.434265         1.690448
 H         1.669530        -0.212078         1.894683
 H         3.924477        -0.405709         1.904776
 H         3.430357         2.826324         1.269680
 H         4.461158         2.239031        -0.184180
 H         1.674004         1.364768        -2.178350
 H         3.285630        -0.832240        -1.054720
