19
Iteration:  3403charge 0 multiplicity 1
 C         0.196483        -0.579984        -0.806129
 C         1.377049         0.219004        -0.183417
 C         1.840385         0.560222         1.280141
 C         3.313627         0.828875         0.725730
 O         4.404353         0.312868         1.473614
 C         3.576366         2.208948         0.175130
 O         2.452196         2.601398        -0.582717
 C         2.017690         1.323152        -1.079047
 C         2.815488         0.178760        -0.674749
 H         0.350699        -1.604815        -0.580568
 H        -0.785954        -0.201551        -0.539263
 H         0.222644        -0.220487        -1.864531
 H         1.142445         1.291284         1.701116
 H         1.710009        -0.340124         1.958661
 H         3.977071        -0.433566         2.006327
 H         3.947649         2.923039         0.849601
 H         4.374938         2.246500        -0.542724
 H         1.760379         1.360480        -2.135710
 H         3.330490        -0.426045        -1.411774
