19
Iteration:  3952
 C         0.196427        -0.547814        -0.571132
 C         1.398751         0.333407        -0.258235
 C         1.856313         0.567117         1.144914
 C         3.222846         0.806444         0.705356
 O         4.255235         0.274187         1.483013
 C         3.583545         2.277287         0.358470
 O         2.492875         2.554698        -0.749122
 C         2.116446         1.312014        -1.186052
 C         2.861419         0.167576        -0.690803
 H         0.185291        -1.496192        -0.083000
 H        -0.730042         0.032964        -0.256945
 H         0.177734        -0.773547        -1.639791
 H         1.403467         1.272341         1.811469
 H         1.888291        -0.435023         1.667171
 H         4.193492        -0.581918         1.872445
 H         3.278523         2.906166         1.179333
 H         4.659959         2.344728         0.028078
 H         1.992372         1.153166        -2.238739
 H         3.526985        -0.582470        -1.179538
