19
Iteration:  1402
 C         0.063112        -0.356466        -0.577224
 C         1.404248         0.202466        -0.222894
 C         1.756514         0.703232         1.123503
 C         3.344764         0.805767         0.758938
 O         4.372567         0.142135         1.475501
 C         3.520476         2.248760         0.177553
 O         2.379952         2.465283        -0.607131
 C         2.109600         1.145787        -1.185380
 C         3.003468         0.167059        -0.638535
 H        -0.065338        -1.417762        -0.325552
 H        -0.673627         0.301208        -0.206753
 H        -0.049276        -0.110542        -1.695397
 H         1.337217         1.579380         1.543016
 H         1.771397        -0.003450         1.913919
 H         5.034445         0.719258         1.804239
 H         3.627400         3.121456         0.791151
 H         4.302466         2.262686        -0.549243
 H         1.966587         1.351025        -2.285949
 H         3.654766        -0.454461        -1.170468
