19
Iteration:  4192charge 0 multiplicity 1
 C         0.337845        -0.582153        -0.627048
 C         1.439206         0.334016        -0.182445
 C         1.788597         0.615417         1.254152
 C         3.236967         0.826662         0.688176
 O         4.250767         0.205194         1.332117
 C         3.453949         2.251834         0.388756
 O         2.540584         2.593037        -0.720409
 C         2.098176         1.342239        -1.143887
 C         2.870770         0.126355        -0.647288
 H         0.359225        -1.383988         0.083036
 H        -0.687822        -0.097505        -0.677819
 H         0.429646        -0.962839        -1.635574
 H         1.462090         1.474158         1.773722
 H         1.487747        -0.259063         1.856626
 H         4.175780        -0.677488         0.965978
 H         3.202307         2.987065         1.189355
 H         4.544356         2.313087         0.238004
 H         1.563099         1.484799        -2.134294
 H         3.475228        -0.531669        -1.274731
