19
Iteration:  4096charge 0 multiplicity 1
 C         0.038594        -0.538164        -0.553044
 C         1.369258         0.323368        -0.304661
 C         1.850812         0.531317         1.187755
 C         3.314962         0.761402         0.735401
 O         4.423839         0.230273         1.463877
 C         3.440873         2.329651         0.441050
 O         2.504820         2.598143        -0.785493
 C         2.159928         1.252197        -1.235738
 C         2.958792         0.227617        -0.684267
 H         0.076802        -1.523518        -0.136144
 H        -0.875266         0.111070        -0.123991
 H        -0.235270        -0.626837        -1.607987
 H         1.316928         1.297504         1.780695
 H         1.454645        -0.478962         1.693306
 H         4.058772        -0.678527         1.576681
 H         3.229556         2.942567         1.327992
 H         4.357313         2.691133        -0.066487
 H         2.004010         1.032390        -2.331634
 H         3.544379        -0.577847        -1.071543
