19
Iteration:  2553
 C         0.123856        -0.382203        -0.516994
 C         1.438041         0.240270        -0.278857
 C         1.902361         0.581529         1.125377
 C         3.322372         0.748088         0.646760
 O         4.328965         0.455932         1.524076
 C         3.616383         2.187575         0.136453
 O         2.356853         2.483820        -0.529319
 C         2.076852         1.296148        -1.170192
 C         2.882360         0.047861        -0.690056
 H        -0.026700        -1.394134         0.050371
 H        -0.627035         0.318354        -0.121332
 H        -0.023825        -0.462918        -1.680400
 H         1.336036         1.192164         1.803070
 H         1.871159        -0.475231         1.535483
 H         4.177603        -0.544565         1.583527
 H         3.804805         2.797345         1.009401
 H         4.413741         2.169542        -0.633702
 H         1.692877         1.423391        -2.234789
 H         3.439048        -0.598941        -1.312619
