19
Iteration:  3186charge 0 multiplicity 1
 C         0.162605        -0.632925        -0.452619
 C         1.361144         0.317923        -0.278365
 C         1.783234         0.565390         1.188913
 C         3.252498         0.699777         0.683633
 O         4.340653         0.148362         1.343974
 C         3.516052         2.374848         0.378511
 O         2.676981         2.576353        -0.775982
 C         2.049019         1.369227        -1.173046
 C         2.792353         0.215611        -0.691150
 H         0.391821        -1.476281         0.086664
 H        -0.863829        -0.343247        -0.109610
 H         0.303698        -0.900825        -1.535174
 H         1.337598         1.444812         1.713424
 H         1.878163        -0.348119         1.797640
 H         4.288729         0.591933         2.235004
 H         3.181072         3.097051         1.114165
 H         4.536741         2.479779         0.039328
 H         1.563691         1.498197        -2.143317
 H         3.479450        -0.475928        -1.231693
