19
Iteration:  4820
 C         0.241275        -0.516893        -0.654633
 C         1.375390         0.255994        -0.227527
 C         1.781289         0.594283         1.208334
 C         3.214530         0.748861         0.663822
 O         4.358136         0.314041         1.385842
 C         3.516844         2.254563         0.340903
 O         2.549504         2.599154        -0.648933
 C         2.105368         1.311532        -1.124739
 C         2.838115         0.113446        -0.668684
 H         0.170130        -1.447748        -0.181376
 H        -0.777044         0.026560        -0.685896
 H         0.315215        -0.757489        -1.779321
 H         1.290479         1.485655         1.639281
 H         1.610653        -0.336591         1.850975
 H         4.041430        -0.450867         1.982517
 H         3.508968         2.853691         1.259211
 H         4.578614         2.240669        -0.081373
 H         1.972491         1.501483        -2.206812
 H         3.274394        -0.775443        -1.101198
