19
Iteration:  3382
 C         0.208477        -0.604399        -0.738568
 C         1.358007         0.309541        -0.226652
 C         1.845438         0.591996         1.185016
 C         3.288751         0.809080         0.710779
 O         4.344588         0.247312         1.489305
 C         3.621850         2.309250         0.275985
 O         2.442257         2.557888        -0.632871
 C         1.976181         1.327212        -1.131795
 C         2.890820         0.145314        -0.630860
 H         0.366469        -1.560618        -0.334474
 H        -0.736819        -0.149029        -0.323809
 H         0.050927        -0.460071        -1.871253
 H         1.486348         1.316222         1.905193
 H         1.949507        -0.326654         1.795801
 H         4.401512        -0.676351         1.182709
 H         3.473166         3.165175         0.939112
 H         4.558885         2.586240        -0.131360
 H         1.608230         1.373877        -2.161097
 H         3.353764        -0.718530        -1.087046
