19
Iteration:  2837
 C         0.123246        -0.430272        -0.466621
 C         1.434932         0.246738        -0.297224
 C         1.939704         0.648602         1.044225
 C         3.359759         0.771428         0.636096
 O         4.295426         0.241511         1.578069
 C         3.559375         2.248650         0.159805
 O         2.397995         2.530326        -0.578831
 C         2.020852         1.245198        -1.189600
 C         2.946419         0.107306        -0.712497
 H         0.014371        -1.509968         0.034297
 H        -0.614062         0.151978         0.101729
 H        -0.208121        -0.355782        -1.562269
 H         1.532755         1.665091         1.393339
 H         1.842355        -0.087081         1.872352
 H         3.816609        -0.444805         2.082158
 H         3.484242         2.892178         1.046127
 H         4.478365         2.398108        -0.566693
 H         1.627357         1.434872        -2.201006
 H         3.700281        -0.464845        -1.339048
