19
Iteration:   662charge 0 multiplicity 1
 C        -0.016897        -0.294366        -0.358779
 C         1.323911         0.323580        -0.172194
 C         1.896969         0.805590         1.192765
 C         3.364875         0.762672         0.591746
 O         4.300543         0.446980         1.575859
 C         3.768955         2.094972         0.001258
 O         2.565574         2.390211        -0.769207
 C         2.003186         1.153404        -1.190473
 C         2.804194        -0.059303        -0.621136
 H        -0.068527        -1.274888         0.101989
 H        -0.656452         0.415721         0.215375
 H        -0.244039        -0.334021        -1.392952
 H         1.496242         1.743591         1.576842
 H         1.666090        -0.056333         1.828900
 H         4.329726        -0.508472         1.836690
 H         3.862562         2.846371         0.831144
 H         4.586708         2.053178        -0.826991
 H         1.575765         1.237856        -2.176955
 H         3.233879        -0.871718        -1.281520
