19
Iteration:  4787
 C         0.218994        -0.706452        -0.657247
 C         1.237104         0.354626        -0.245275
 C         1.722138         0.585519         1.250859
 C         3.221090         0.853611         0.716229
 O         4.426693         0.183910         1.387515
 C         3.540651         2.315641         0.408833
 O         2.681120         2.578556        -0.762642
 C         2.050920         1.379990        -1.147862
 C         2.821723         0.229810        -0.669941
 H         0.361515        -1.673975        -0.277386
 H        -0.897057        -0.478063        -0.411414
 H         0.445343        -0.760454        -1.789189
 H         1.196755         1.418255         1.723651
 H         1.695404        -0.376207         1.882123
 H         4.100529        -0.674588         1.757358
 H         3.345716         3.021217         1.228269
 H         4.609853         2.436906         0.109402
 H         1.852913         1.574928        -2.236748
 H         3.197415        -0.745975        -0.919193
