19
Iteration:   602
 C         0.095715        -0.368638        -0.339193
 C         1.295268         0.434200        -0.024529
 C         1.893369         0.802513         1.275963
 C         3.303264         0.879033         0.668380
 O         4.298423         0.096499         1.365763
 C         3.540995         2.269904         0.194445
 O         2.815453         2.384722        -1.095077
 C         2.010158         1.138345        -1.208171
 C         2.673301         0.028506        -0.504768
 H        -0.267829        -0.920533         0.537629
 H        -0.716078         0.296042        -0.563713
 H         0.010898        -1.083574        -1.195372
 H         1.438231         1.596775         1.961064
 H         1.907913        -0.143645         1.876881
 H         4.987852         0.788454         1.584848
 H         3.361284         3.081545         0.884753
 H         4.567728         2.495282        -0.157306
 H         1.439267         0.935791        -2.196404
 H         3.089408        -0.878834        -0.887631
