19
Iteration:  3567charge 0 multiplicity 1
 C         0.178394        -0.475177        -0.659752
 C         1.463560         0.187822        -0.282877
 C         1.872222         0.579067         1.176392
 C         3.281776         0.878955         0.716316
 O         4.354111         0.203187         1.517816
 C         3.582001         2.308018         0.198637
 O         2.386808         2.523625        -0.571843
 C         2.037844         1.272861        -1.131506
 C         2.917350         0.166400        -0.727222
 H         0.158636        -1.527618        -0.349889
 H        -0.686721        -0.042906        -0.195506
 H        -0.213184        -0.416753        -1.719300
 H         1.266668         1.441186         1.586750
 H         1.779996        -0.265979         1.954325
 H         3.808272        -0.362340         2.065854
 H         3.672681         3.044474         0.936755
 H         4.450718         2.494085        -0.396875
 H         1.698387         1.467404        -2.156888
 H         3.594093        -0.393927        -1.398666
