19
Iteration:  2884
 C         0.121719        -0.544628        -0.653141
 C         1.315508         0.314627        -0.184564
 C         1.747551         0.603087         1.291525
 C         3.227873         0.774048         0.703226
 O         4.489814         0.319692         1.357001
 C         3.593527         2.228613         0.370545
 O         2.651486         2.568145        -0.884273
 C         1.994853         1.323871        -1.094696
 C         2.791458         0.145284        -0.599398
 H         0.205614        -1.495015        -0.010892
 H        -0.870860        -0.229999        -0.436336
 H         0.205149        -0.829583        -1.685130
 H         1.330656         1.398064         1.928931
 H         1.709498        -0.381222         1.907434
 H         4.196087        -0.466492         1.811526
 H         3.382243         2.892427         1.292379
 H         4.617449         2.263191        -0.086798
 H         1.562806         1.123245        -2.118471
 H         3.278064        -0.522579        -1.240594
