19
Iteration:  4217
 C         0.212119        -0.661712        -0.559610
 C         1.385242         0.239441        -0.199778
 C         1.816787         0.622316         1.152174
 C         3.362221         0.880981         0.673781
 O         4.310336         0.014562         1.500580
 C         3.387502         2.428067         0.415348
 O         2.652458         2.590043        -0.773099
 C         2.045616         1.372461        -1.193161
 C         2.835710         0.270143        -0.744445
 H         0.397161        -1.537094         0.051663
 H        -0.874658        -0.230127        -0.387624
 H         0.153825        -0.861466        -1.632114
 H         1.249528         1.378348         1.731340
 H         1.809839        -0.312220         1.881168
 H         4.187590        -0.823797         1.086495
 H         2.947078         3.065730         1.162802
 H         4.439759         2.754051         0.337344
 H         1.614079         1.547659        -2.152161
 H         3.514711        -0.389012        -1.314668
