19
Iteration:  1789charge 0 multiplicity 1
 C         0.058907        -0.457003        -0.487535
 C         1.351675         0.368110        -0.153212
 C         1.888749         0.501541         1.268157
 C         3.232015         0.778792         0.642777
 O         4.296652         0.415989         1.451745
 C         3.507097         2.220884         0.332907
 O         2.643117         2.542169        -0.831206
 C         2.148227         1.235615        -1.175530
 C         2.812365         0.080616        -0.775844
 H         0.119122        -1.420954         0.015979
 H        -0.775910         0.067463        -0.014960
 H         0.050002        -0.681620        -1.500449
 H         1.412604         1.217361         1.987566
 H         1.971838        -0.520062         1.620285
 H         4.590863        -0.506000         1.390686
 H         3.155933         2.956381         1.100042
 H         4.536511         2.187412         0.031090
 H         1.809408         1.333500        -2.202593
 H         3.484117        -0.611284        -1.245786
