19
Iteration:  3480
 C         0.267593        -0.530178        -0.490974
 C         1.494207         0.227813        -0.243961
 C         1.779183         0.535227         1.234783
 C         3.195248         0.873607         0.689439
 O         4.241099         0.076201         1.253467
 C         3.382961         2.371377         0.440294
 O         2.528311         2.550635        -0.717390
 C         2.156816         1.305271        -1.179675
 C         2.958851         0.247756        -0.748727
 H         0.127081        -1.340247         0.208938
 H        -0.456736         0.291545        -0.413106
 H         0.427647        -0.993506        -1.526509
 H         1.030446         1.260093         1.669475
 H         1.662912        -0.444414         1.867107
 H         4.645989         0.551981         2.022424
 H         3.145186         2.811187         1.380195
 H         4.539475         2.713445         0.175861
 H         1.712806         1.393236        -2.204805
 H         3.413748        -0.564374        -1.246386
