19
Iteration:  2494charge 0 multiplicity 1
 C         0.251027        -0.456270        -0.583486
 C         1.406101         0.321852        -0.142723
 C         1.836420         0.571870         1.311417
 C         3.260659         0.859952         0.671327
 O         4.387069         0.238223         1.272303
 C         3.504420         2.361380         0.357108
 O         2.549080         2.515480        -0.773868
 C         2.043869         1.228330        -1.168171
 C         2.774272         0.085558        -0.626925
 H         0.351209        -1.593956        -0.280111
 H        -0.751484        -0.108412        -0.217777
 H         0.163673        -0.539456        -1.715982
 H         1.312051         1.445243         1.866737
 H         1.615569        -0.386749         1.851995
 H         4.174402        -0.632207         1.618944
 H         3.219447         3.029289         1.215074
 H         4.470152         2.653553        -0.017564
 H         1.706895         1.352071        -2.161531
 H         3.223750        -0.860698        -1.027651
