19
Iteration:    43
 C         0.016899        -0.288896        -0.027245
 C         1.342299         0.442053        -0.034245
 C         1.837330         0.908233         1.307152
 C         3.275392         0.780561         0.722635
 O         4.327813         0.241311         1.507711
 C         3.612605         2.056422        -0.010434
 O         2.872412         2.309197        -1.213433
 C         2.002156         1.220822        -1.288634
 C         2.625394        -0.001728        -0.626054
 H        -0.100745        -0.870966         0.931102
 H        -0.731551         0.479089        -0.223445
 H        -0.165548        -1.068772        -0.798367
 H         1.443108         1.907697         1.793860
 H         1.661165         0.123945         2.103761
 H         4.987709         0.039952         0.795370
 H         3.529850         2.879003         0.678465
 H         4.713193         1.990986        -0.235992
 H         1.446900         1.276203        -2.163547
 H         2.855511        -0.898467        -1.185099
