19
Iteration:  2927
 C         0.227096        -0.420748        -0.557608
 C         1.367019         0.386437        -0.178573
 C         1.829377         0.682158         1.281684
 C         3.289360         0.765754         0.704873
 O         4.331338         0.190147         1.350643
 C         3.428167         2.314599         0.343724
 O         2.524549         2.543841        -0.811666
 C         2.041377         1.209362        -1.178935
 C         2.941040         0.073790        -0.633137
 H         0.042880        -1.401976         0.118663
 H        -0.680360         0.167927        -0.536978
 H         0.362160        -0.837776        -1.562520
 H         1.337593         1.511105         1.815058
 H         1.819064        -0.271341         1.907851
 H         4.547404        -0.701277         1.129267
 H         2.997641         2.928057         1.198288
 H         4.517515         2.531808         0.128009
 H         1.928567         1.113806        -2.256550
 H         3.331118        -0.829630        -1.017339
