19
Iteration:  3274
 C         0.120385        -0.459025        -0.810742
 C         1.337071         0.245704        -0.203584
 C         1.752306         0.626102         1.279686
 C         3.367918         0.772436         0.651498
 O         4.469352         0.360681         1.396582
 C         3.644586         2.236063         0.244595
 O         2.404220         2.514794        -0.549442
 C         2.010272         1.243132        -1.098440
 C         2.918433         0.113247        -0.606296
 H         0.035585        -1.460470        -0.541251
 H        -0.874137         0.038688        -0.525818
 H         0.335083        -0.606171        -1.921795
 H         1.378330         1.497803         1.784219
 H         1.764394        -0.287596         1.864937
 H         4.148863        -0.250557         2.039889
 H         3.575828         3.037736         1.020561
 H         4.430845         2.234481        -0.508904
 H         1.511908         1.265901        -2.045076
 H         3.288056        -0.720295        -1.258154
