19
Iteration:  2732
 C         0.124098        -0.445606        -0.519657
 C         1.341560         0.246910        -0.122199
 C         1.849086         0.552312         1.246448
 C         3.251674         0.814379         0.619612
 O         4.354230         0.327772         1.369451
 C         3.506283         2.305741         0.292710
 O         2.644941         2.549731        -0.774158
 C         2.076183         1.261630        -1.213409
 C         2.841193         0.053735        -0.670676
 H        -0.011986        -1.297218         0.141630
 H        -0.890019         0.160846        -0.446530
 H         0.177090        -0.879271        -1.509169
 H         1.423943         1.309761         1.865926
 H         1.804224        -0.409794         1.808676
 H         4.094628        -0.350237         2.002432
 H         3.274616         2.974459         1.191643
 H         4.544878         2.460851         0.118568
 H         1.601871         1.299795        -2.223639
 H         3.499061        -0.688187        -1.141838
