19
Iteration:   454
 C         0.079166        -0.303020        -0.175301
 C         1.283065         0.417951        -0.049195
 C         1.745190         0.813959         1.374369
 C         3.198702         0.727139         0.640089
 O         4.425901         0.264645         1.395428
 C         3.627801         2.191260         0.085349
 O         2.841166         2.389015        -1.097862
 C         2.025050         1.175228        -1.246368
 C         2.710383         0.005893        -0.670882
 H         0.251526        -1.215330         0.493701
 H        -0.895473         0.154862         0.332786
 H        -0.066810        -0.828970        -1.153375
 H         1.226340         1.745772         1.636211
 H         1.385671        -0.084841         1.919676
 H         4.258043        -0.012935         2.292471
 H         3.580933         3.067519         0.809684
 H         4.689044         2.083037        -0.270410
 H         1.591685         1.291527        -2.336283
 H         3.066656        -0.918122        -1.066326
