19
Iteration:  2126
 C         0.160513        -0.442955        -0.694942
 C         1.340616         0.319825        -0.181761
 C         1.831926         0.500381         1.315741
 C         3.336858         0.795969         0.689922
 O         4.487158         0.363150         1.494074
 C         3.630506         2.128429         0.036990
 O         2.391842         2.550801        -0.658236
 C         1.994249         1.298763        -1.102359
 C         2.798984         0.156369        -0.620622
 H         0.163524        -1.549736        -0.684695
 H        -0.779448        -0.053270        -0.246933
 H        -0.063938        -0.367533        -1.850654
 H         1.353246         1.288545         1.944391
 H         2.044126        -0.490385         1.853491
 H         4.132203        -0.244180         2.123901
 H         3.892249         2.787995         0.877704
 H         4.643734         2.214484        -0.490614
 H         1.499512         1.339408        -2.082844
 H         3.306405        -0.537755        -1.191913
