19
Iteration:  2776
 C         0.266042        -0.553571        -0.602117
 C         1.264477         0.469515        -0.134324
 C         1.812119         0.577213         1.326331
 C         3.249834         0.769637         0.719222
 O         4.461258         0.299951         1.435345
 C         3.535924         2.224648         0.283339
 O         2.649605         2.557213        -0.869658
 C         2.021512         1.271497        -1.212260
 C         2.671385         0.108754        -0.630547
 H         0.270668        -1.460347        -0.063367
 H        -0.784326        -0.034477        -0.519414
 H         0.405106        -0.819059        -1.640541
 H         1.447842         1.345466         1.958235
 H         1.740818        -0.308709         1.989563
 H         4.438534        -0.656369         1.285426
 H         3.343375         2.892432         1.181344
 H         4.512835         2.484983         0.052815
 H         1.423100         1.281279        -2.187290
 H         2.958652        -0.757876        -1.171087
