19
Iteration:  2470
 C         0.254872        -0.577485        -0.431500
 C         1.358797         0.374711        -0.208561
 C         1.849525         0.627948         1.269089
 C         3.234851         0.789881         0.660631
 O         4.388479         0.085209         1.332599
 C         3.359019         2.264564         0.370619
 O         2.618415         2.618179        -0.852628
 C         2.024802         1.292598        -1.218328
 C         2.878323         0.287539        -0.664136
 H         0.471291        -1.489129         0.227743
 H        -0.798543        -0.213731        -0.117361
 H         0.148415        -1.040708        -1.405702
 H         1.452268         1.550833         1.835262
 H         1.627943        -0.261433         1.923481
 H         4.098220        -0.765026         1.643261
 H         3.015288         2.873265         1.227581
 H         4.379165         2.570941         0.096620
 H         1.933165         1.343713        -2.314681
 H         3.424631        -0.449098        -1.205586
