19
Iteration:  4908charge 0 multiplicity 1
 C         0.196421        -0.532968        -0.712980
 C         1.324023         0.413027        -0.236482
 C         1.790173         0.587905         1.277278
 C         3.258015         0.730232         0.736347
 O         4.444226         0.304516         1.489756
 C         3.444972         2.237394         0.361653
 O         2.609112         2.599968        -0.749170
 C         2.061221         1.308431        -1.205809
 C         2.824457         0.046154        -0.691855
 H         0.368732        -1.434283        -0.233015
 H        -0.838624        -0.168547        -0.442280
 H         0.310357        -0.740529        -1.819044
 H         1.501703         1.445060         1.878261
 H         1.590092        -0.461859         1.597499
 H         4.314534        -0.677351         1.706945
 H         3.088929         2.797656         1.272163
 H         4.459105         2.665279         0.232163
 H         1.622343         1.465817        -2.179778
 H         3.323225        -0.751345        -1.264137
