19
Iteration:   405
 C        -0.040117        -0.199828        -0.343103
 C         1.325315         0.312979        -0.058556
 C         1.857038         0.926237         1.241888
 C         3.351447         0.831992         0.683936
 O         4.368347         0.196386         1.500152
 C         3.703680         2.160205        -0.083248
 O         2.527000         2.397538        -0.877982
 C         2.075561         1.064266        -1.157184
 C         2.833584        -0.056213        -0.515928
 H        -0.412349        -0.957630         0.372443
 H        -0.748309         0.609295        -0.224250
 H        -0.100968        -0.713027        -1.313392
 H         1.444822         1.922010         1.236134
 H         1.693164         0.269302         2.072033
 H         4.951557        -0.377014         0.929458
 H         3.665550         2.947606         0.637235
 H         4.553101         2.198203        -0.737705
 H         1.540073         1.055138        -2.027325
 H         3.192260        -0.856953        -1.171946
