19
Iteration:   255charge 0 multiplicity 1
 C         0.039328        -0.212343        -0.257570
 C         1.342784         0.364382        -0.058388
 C         1.952069         0.805892         1.275240
 C         3.296008         0.807181         0.516594
 O         4.231331         0.340072         1.498234
 C         3.777376         1.935736        -0.159272
 O         2.659288         2.364691        -0.861551
 C         1.956122         1.199013        -1.134125
 C         2.723071        -0.044161        -0.548801
 H        -0.242507        -1.070799         0.258071
 H        -0.730168         0.562880        -0.185115
 H         0.028799        -0.399332        -1.320856
 H         1.403319         1.642080         1.808665
 H         1.940913         0.095673         2.114215
 H         4.724099         1.135632         1.869374
 H         4.087643         2.864682         0.356794
 H         4.556039         1.577719        -0.881439
 H         1.390200         1.159629        -1.964650
 H         2.931002        -1.038808        -0.914446
