19
Iteration:  2336
 C         0.112504        -0.514528        -0.367370
 C         1.303020         0.369420        -0.294499
 C         1.870363         0.484592         1.168972
 C         3.303918         0.804512         0.693302
 O         4.397171         0.304195         1.411171
 C         3.382500         2.289627         0.349174
 O         2.643594         2.554525        -0.780617
 C         2.120185         1.348275        -1.260341
 C         2.789685         0.095897        -0.695395
 H         0.444879        -1.311946         0.414495
 H        -0.801826         0.041692         0.074446
 H        -0.013134        -0.898801        -1.383503
 H         1.341620         1.141833         1.933649
 H         2.010351        -0.581117         1.569901
 H         4.263832        -0.634888         1.451991
 H         3.052980         2.917898         1.148950
 H         4.451260         2.454845         0.271543
 H         2.137710         1.333625        -2.320566
 H         3.256163        -0.640880        -1.448335
