19
Iteration:  3583
 C         0.115139        -0.565294        -0.580342
 C         1.398673         0.269457        -0.339028
 C         1.872254         0.671080         1.092260
 C         3.420683         0.763843         0.679070
 O         4.369366         0.195293         1.563865
 C         3.489919         2.325476         0.344639
 O         2.413357         2.572345        -0.642436
 C         2.039237         1.300208        -1.215550
 C         2.945394         0.174601        -0.694453
 H         0.198599        -1.555299        -0.113420
 H        -0.752353         0.015012        -0.026725
 H        -0.027088        -0.596637        -1.654797
 H         1.363827         1.499076         1.612627
 H         1.815486        -0.242641         1.649294
 H         4.080169        -0.699328         1.683449
 H         3.196618         2.966048         1.254074
 H         4.551771         2.435424        -0.119528
 H         1.662287         1.318023        -2.239048
 H         3.394532        -0.605408        -1.289359
