19
Iteration:   407
 C        -0.046894        -0.208131        -0.337924
 C         1.316262         0.328299        -0.054418
 C         1.855331         0.918494         1.244515
 C         3.365917         0.852213         0.672719
 O         4.367829         0.190017         1.502690
 C         3.697754         2.171592        -0.081314
 O         2.539593         2.393707        -0.873462
 C         2.076729         1.057529        -1.169568
 C         2.830506        -0.064725        -0.524528
 H        -0.380023        -1.001847         0.394770
 H        -0.827026         0.657781        -0.243025
 H        -0.124151        -0.721758        -1.351394
 H         1.450557         1.941567         1.271564
 H         1.751651         0.263658         2.107147
 H         4.901418        -0.439732         0.964454
 H         3.645702         2.984894         0.648134
 H         4.582532         2.303459        -0.669744
 H         1.514560         0.979170        -2.072024
 H         3.201975        -0.894636        -1.170886
