19
Iteration:   750charge 0 multiplicity 1
 C         0.061352        -0.440291        -0.347812
 C         1.288988         0.427969        -0.120709
 C         1.789387         0.890983         1.265156
 C         3.361825         0.847620         0.691026
 O         4.371563         0.098923         1.438663
 C         3.596089         2.335750         0.180344
 O         2.728183         2.426578        -1.015234
 C         2.024304         1.164220        -1.178874
 C         2.736028         0.032018        -0.547475
 H         0.088470        -1.133734         0.479214
 H        -0.982840        -0.178264        -0.354760
 H         0.180429        -1.041925        -1.206349
 H         1.247141         1.819249         1.577973
 H         1.584794         0.179407         2.090350
 H         4.662133        -0.624983         0.867382
 H         3.221718         2.879000         1.033461
 H         4.611130         2.362839        -0.169879
 H         1.832658         1.110362        -2.298832
 H         3.050365        -0.794153        -1.162829
