19
Iteration:  2676
 C         0.050368        -0.423860        -0.595758
 C         1.473018         0.180675        -0.189951
 C         1.916986         0.670108         1.118074
 C         3.340569         0.794014         0.647610
 O         4.303462         0.371865         1.518597
 C         3.597490         2.217424         0.186066
 O         2.401888         2.513853        -0.590619
 C         2.070152         1.197677        -1.210592
 C         2.915003         0.097927        -0.668200
 H        -0.112333        -1.438845        -0.170754
 H        -0.561602         0.270759         0.139802
 H        -0.291866        -0.343748        -1.629822
 H         1.566835         1.525713         1.615195
 H         1.997841        -0.030374         1.973635
 H         4.033257        -0.601633         1.499681
 H         3.627685         2.934195         1.054203
 H         4.559887         2.241114        -0.336139
 H         1.629088         1.301912        -2.180857
 H         3.282673        -0.751513        -1.320121
