19
Iteration:  4749
 C         0.195939        -0.494418        -0.590072
 C         1.429554         0.357540        -0.241152
 C         1.829933         0.611607         1.144870
 C         3.315600         0.726971         0.718637
 O         4.279699         0.227954         1.536016
 C         3.483798         2.262302         0.325421
 O         2.476119         2.533566        -0.623015
 C         2.031430         1.287508        -1.239020
 C         2.996752         0.196175        -0.789943
 H         0.212778        -1.600324        -0.266842
 H        -0.684678         0.014886        -0.343201
 H         0.035447        -0.483166        -1.632830
 H         1.443319         1.524762         1.657252
 H         1.796134        -0.254602         1.813312
 H         4.108046        -0.766434         1.562569
 H         3.332448         3.017176         1.149463
 H         4.512480         2.502926        -0.069022
 H         1.699879         1.278577        -2.244194
 H         3.434709        -0.701482        -1.238360
