19
Iteration:  4594
 C         0.205944        -0.537644        -0.653267
 C         1.421095         0.250278        -0.313007
 C         1.910437         0.667821         1.184451
 C         3.312502         0.816339         0.645107
 O         4.238165         0.278889         1.558543
 C         3.674805         2.249592         0.325980
 O         2.408768         2.534339        -0.560866
 C         2.032093         1.303450        -1.218783
 C         2.892675         0.146422        -0.742119
 H         0.176560        -1.701626        -0.467231
 H        -0.643711        -0.232200        -0.104599
 H         0.010541        -0.423748        -1.758461
 H         1.156749         1.455966         1.494496
 H         1.926745        -0.139475         1.896974
 H         3.973397        -0.631108         1.743163
 H         3.535620         2.877409         1.242007
 H         4.613307         2.228178        -0.285751
 H         1.458795         1.535554        -2.198893
 H         3.426352        -0.644605        -1.321516
