19
Iteration:  2864
 C         0.161486        -0.508250        -0.522148
 C         1.383214         0.352708        -0.237625
 C         1.851058         0.539362         1.208170
 C         3.249410         0.784731         0.690758
 O         4.357253         0.335004         1.465569
 C         3.565411         2.224661         0.191790
 O         2.570876         2.534777        -0.671865
 C         2.043108         1.289121        -1.209620
 C         2.793319         0.119585        -0.711757
 H         0.203727        -1.431228        -0.048700
 H        -0.789314        -0.049661        -0.201031
 H         0.131839        -0.521513        -1.569382
 H         1.468496         1.271098         1.904547
 H         1.857590        -0.439246         1.767946
 H         4.071754        -0.255192         2.171387
 H         3.537800         2.958379         1.050300
 H         4.516824         2.264281        -0.320271
 H         1.791339         1.518142        -2.253247
 H         3.177554        -0.764234        -1.182890
