19
Iteration:  1511charge 0 multiplicity 1
 C         0.109799        -0.474790        -0.650188
 C         1.385990         0.234804        -0.245374
 C         1.835843         0.769871         1.162946
 C         3.357273         0.761504         0.740934
 O         4.360936         0.175266         1.476851
 C         3.495468         2.239915         0.252368
 O         2.418731         2.545034        -0.643665
 C         2.111867         1.236000        -1.195356
 C         2.888036         0.116942        -0.561736
 H        -0.113457        -1.344806        -0.026807
 H        -0.698037         0.189227        -0.453312
 H         0.100341        -0.815324        -1.732499
 H         1.516899         1.839290         1.424709
 H         1.747094         0.054726         2.018018
 H         5.203036         0.193728         0.906829
 H         3.369512         3.045222         0.979379
 H         4.512567         2.352971        -0.219298
 H         1.703624         1.183679        -2.197477
 H         3.346891        -0.756148        -1.128029
