19
Iteration:   149charge 0 multiplicity 1
 C        -0.120364        -0.285686        -0.148950
 C         1.183695         0.499875        -0.059611
 C         1.946971         0.853503         1.252055
 C         3.369843         0.823167         0.646773
 O         4.297379         0.143827         1.598123
 C         3.734110         2.185167        -0.110271
 O         2.761322         2.360024        -1.131741
 C         2.035655         1.106684        -1.173980
 C         2.655060         0.011422        -0.562266
 H         0.107109        -1.288771         0.352612
 H        -1.076267         0.143826         0.185838
 H        -0.270750        -0.639414        -1.207907
 H         1.689728         1.707925         1.795489
 H         1.878882        -0.106900         1.724443
 H         5.199782         0.559373         1.603707
 H         3.730917         3.035598         0.616676
 H         4.757766         2.153801        -0.527318
 H         1.698466         0.980267        -2.126390
 H         3.063486        -0.859993        -1.076551
