19
Iteration:   583charge 0 multiplicity 1
 C         0.075857        -0.327624        -0.270412
 C         1.293330         0.441518        -0.078379
 C         1.863168         0.732485         1.399366
 C         3.211427         0.745382         0.669471
 O         4.354040         0.234379         1.374260
 C         3.556428         2.133869         0.079765
 O         2.788780         2.384877        -1.052625
 C         2.060870         1.233570        -1.201299
 C         2.752424         0.016643        -0.660334
 H        -0.121933        -0.836257         0.629477
 H        -0.870742         0.105643        -0.656112
 H         0.375522        -1.046098        -1.050878
 H         1.612169         1.710592         1.856968
 H         1.606709         0.054802         2.211404
 H         4.274056         0.851361         2.182028
 H         3.223072         2.895621         0.837513
 H         4.719252         2.346516        -0.214131
 H         1.589973         1.302595        -2.203097
 H         2.934097        -0.929749        -1.080148
