19
Iteration:  3969charge 0 multiplicity 1
 C         0.096102        -0.501069        -0.579803
 C         1.373321         0.283586        -0.390815
 C         1.825590         0.632213         1.093427
 C         3.407569         0.817516         0.663875
 O         4.361681         0.280979         1.592844
 C         3.495515         2.306984         0.280859
 O         2.461198         2.518868        -0.536300
 C         2.134450         1.253364        -1.286172
 C         2.920584         0.087855        -0.692763
 H         0.156367        -1.469292         0.050120
 H        -0.735748         0.003286        -0.166502
 H        -0.090665        -0.949381        -1.599839
 H         1.285229         1.505028         1.598240
 H         1.635049        -0.284613         1.644177
 H         3.859733        -0.424238         2.016216
 H         3.494493         2.892460         1.277192
 H         4.458879         2.511396        -0.227490
 H         1.802637         1.625327        -2.295842
 H         3.316106        -0.684823        -1.325189
