19
Iteration:  2535
 C         0.072253        -0.383863        -0.653377
 C         1.366127         0.221825        -0.255962
 C         1.803678         0.490741         1.187280
 C         3.367557         0.750235         0.683098
 O         4.508708         0.475671         1.589868
 C         3.605558         2.171915         0.142681
 O         2.433732         2.535504        -0.547863
 C         1.955504         1.249967        -1.165263
 C         2.851523         0.093905        -0.760535
 H        -0.003825        -1.356808        -0.324240
 H        -0.743140         0.171897        -0.102773
 H        -0.085575        -0.458290        -1.667468
 H         1.407321         1.413343         1.672591
 H         1.696682        -0.167150         2.038698
 H         4.704651        -0.459046         1.916515
 H         3.702549         3.028577         0.838410
 H         4.448689         2.016506        -0.597087
 H         1.665625         1.267279        -2.202156
 H         3.243055        -0.680952        -1.434916
