19
Iteration:  4062
 C         0.267977        -0.548246        -0.586020
 C         1.405035         0.367772        -0.145740
 C         1.731151         0.544080         1.246877
 C         3.200604         0.777339         0.644909
 O         4.332842         0.363158         1.305914
 C         3.375681         2.300535         0.554493
 O         2.788124         2.518928        -0.830354
 C         2.077858         1.322795        -1.151540
 C         2.793622         0.073718        -0.719444
 H         0.301163        -1.489342        -0.063536
 H        -0.776940        -0.134722        -0.198147
 H         0.235303        -0.767057        -1.653337
 H         1.336376         1.478508         1.644718
 H         1.330389        -0.430776         1.815097
 H         4.545216        -0.621339         1.268572
 H         3.049965         2.736131         1.514061
 H         4.376890         2.563338         0.306556
 H         1.675840         1.371753        -2.162015
 H         3.156983        -0.780857        -1.274480
