19
Iteration:  3115
 C         0.071870        -0.412152        -0.650245
 C         1.455305         0.183374        -0.201234
 C         1.848698         0.585294         1.198161
 C         3.319814         0.797007         0.651854
 O         4.318833         0.262865         1.557821
 C         3.636816         2.207220         0.171699
 O         2.379621         2.546614        -0.621334
 C         2.028897         1.224648        -1.129642
 C         2.916524         0.149950        -0.692809
 H        -0.361030        -1.293555        -0.077064
 H        -0.628123         0.322561        -0.363221
 H         0.208511        -0.557767        -1.662191
 H         1.406838         1.490016         1.492276
 H         1.736171        -0.260185         1.851039
 H         5.233382         0.428546         1.148456
 H         3.585593         2.983208         0.936375
 H         4.439374         2.245663        -0.532630
 H         1.560355         1.524201        -2.025749
 H         3.680604        -0.581307        -0.978867
