19
Iteration:  4268charge 0 multiplicity 1
 C         0.171916        -0.443170        -0.757996
 C         1.406862         0.233975        -0.334725
 C         1.766396         0.556059         1.226984
 C         3.310366         0.744604         0.800491
 O         4.396171         0.393376         1.455718
 C         3.558680         2.214962         0.296892
 O         2.428887         2.541081        -0.541498
 C         2.067086         1.296236        -1.140661
 C         2.912545         0.079526        -0.766997
 H         0.202484        -1.505172        -0.539007
 H        -0.667958        -0.023895        -0.149291
 H        -0.089752        -0.255730        -1.796766
 H         1.294251         1.421245         1.700920
 H         1.599183        -0.306814         1.851408
 H         4.433774        -0.364585         2.055820
 H         3.683651         3.056935         1.046012
 H         4.484585         2.131323        -0.315200
 H         1.534474         1.518360        -2.108476
 H         3.379169        -0.720787        -1.320001
