19
Iteration:  3884
 C         0.212102        -0.490676        -0.670158
 C         1.360707         0.312578        -0.249939
 C         1.784100         0.643195         1.219210
 C         3.257902         0.745360         0.746458
 O         4.394903         0.334959         1.426145
 C         3.497420         2.249635         0.375410
 O         2.491877         2.516731        -0.698162
 C         2.152748         1.250757        -1.226529
 C         2.865728         0.116323        -0.635269
 H         0.262474        -1.505146        -0.192729
 H        -0.703914        -0.041276        -0.414135
 H         0.291646        -0.678674        -1.787891
 H         1.387547         1.541587         1.749550
 H         1.551535        -0.239545         1.876273
 H         4.233920        -0.579260         1.709998
 H         3.258754         2.976332         1.195436
 H         4.445626         2.436244        -0.127680
 H         1.721031         1.392096        -2.267932
 H         3.177950        -0.765268        -1.161875
