19
Iteration:  1662
 C         0.211053        -0.510722        -0.572785
 C         1.336786         0.272975        -0.249750
 C         1.876661         0.569084         1.155824
 C         3.268044         0.722476         0.570290
 O         4.204358         0.350668         1.604155
 C         3.642233         2.270262         0.182151
 O         2.510849         2.558658        -0.575333
 C         2.062322         1.314969        -1.140058
 C         2.821439         0.098859        -0.728576
 H         0.156529        -1.334981         0.167843
 H        -0.741034         0.082046        -0.443434
 H         0.212289        -0.938837        -1.649544
 H         1.550362         1.299750         1.822902
 H         1.774401        -0.277560         1.855901
 H         5.013539        -0.041204         1.125965
 H         3.891804         2.911924         1.012044
 H         4.593154         2.204634        -0.413486
 H         1.645943         1.425949        -2.117994
 H         3.206429        -0.645807        -1.480137
