19
Iteration:  2444charge 0 multiplicity 1
 C         0.177607        -0.655675        -0.385055
 C         1.353899         0.272871        -0.242157
 C         1.832903         0.652032         1.064527
 C         3.282511         0.853118         0.586417
 O         4.303513         0.238424         1.421893
 C         3.545718         2.276526         0.346136
 O         2.613628         2.605715        -0.643041
 C         2.085048         1.312997        -1.172704
 C         2.819249         0.150867        -0.781999
 H         0.224563        -1.401882         0.274540
 H        -0.748789        -0.186781        -0.226717
 H         0.081508        -1.207563        -1.285823
 H         1.301982         1.324101         1.662036
 H         2.005875        -0.207180         1.696014
 H         4.136513        -0.671234         1.666047
 H         3.330286         2.902729         1.210405
 H         4.519620         2.570012        -0.116437
 H         1.537221         1.791784        -1.974784
 H         3.158296        -0.680833        -1.417575
