19
Iteration:  3961charge 0 multiplicity 1
 C         0.124532        -0.548339        -0.554312
 C         1.380376         0.315442        -0.343864
 C         1.845057         0.602133         1.091741
 C         3.333155         0.800838         0.670161
 O         4.329152         0.281161         1.556471
 C         3.541050         2.289254         0.345816
 O         2.476556         2.524608        -0.613633
 C         2.144980         1.301156        -1.258451
 C         2.880351         0.125517        -0.686197
 H         0.195029        -1.462786         0.055768
 H        -0.781338        -0.007330        -0.323929
 H        -0.038257        -0.715618        -1.655814
 H         1.335953         1.368102         1.724008
 H         1.871039        -0.382850         1.676498
 H         3.852844        -0.482029         1.871367
 H         3.359109         3.125691         1.048139
 H         4.442574         2.538925        -0.134136
 H         1.947719         1.320918        -2.353483
 H         3.313240        -0.738044        -1.233083
