19
Iteration:   473
 C        -0.007056        -0.425658        -0.224031
 C         1.222982         0.452239        -0.132593
 C         1.821391         0.794807         1.274960
 C         3.294181         0.838296         0.701449
 O         4.352312         0.253166         1.361155
 C         3.694562         2.108762         0.074562
 O         2.842711         2.388242        -1.050079
 C         2.052014         1.203328        -1.216949
 C         2.637118         0.063744        -0.522117
 H         0.001392        -1.405401         0.273821
 H        -0.825598         0.033587         0.424865
 H        -0.269869        -0.787761        -1.255392
 H         1.516264         1.744095         1.748613
 H         1.882392        -0.088056         1.902299
 H         4.565481         0.796971         2.125162
 H         3.471934         2.944895         0.721489
 H         4.666741         1.869765        -0.224083
 H         1.650180         1.159615        -2.298731
 H         3.026100        -0.875429        -0.941206
