19
Iteration:  4612
 C         0.176535        -0.617621        -0.583678
 C         1.365877         0.338449        -0.317672
 C         1.796901         0.706767         1.079013
 C         3.308547         0.778597         0.662439
 O         4.365130         0.237664         1.499855
 C         3.484809         2.271331         0.381621
 O         2.540155         2.524743        -0.565917
 C         2.108843         1.345514        -1.236591
 C         2.856057         0.139300        -0.707493
 H         0.490470        -1.539051        -0.243352
 H        -0.753204        -0.269762        -0.044629
 H        -0.160664        -0.689155        -1.649447
 H         1.562534         1.608854         1.643864
 H         1.532309        -0.161516         1.701565
 H         4.149254        -0.677256         1.671601
 H         3.174815         2.807716         1.285541
 H         4.435011         2.629733        -0.001410
 H         2.014484         1.298797        -2.308898
 H         3.282693        -0.664720        -1.390095
