19
Iteration:  2611charge 0 multiplicity 1
 C         0.263727        -0.599680        -0.524813
 C         1.299737         0.403456        -0.122824
 C         1.800336         0.690288         1.285493
 C         3.260521         0.830359         0.679084
 O         4.339693         0.215733         1.222043
 C         3.425035         2.247484         0.361106
 O         2.691098         2.530223        -0.796896
 C         2.136993         1.277527        -1.169862
 C         2.754344         0.152210        -0.664977
 H         0.313902        -1.507631         0.099821
 H        -0.901933        -0.273964        -0.476182
 H         0.458108        -1.028548        -1.503792
 H         1.503036         1.572764         1.879190
 H         1.646676        -0.190080         2.023393
 H         4.200293        -0.505063         1.807000
 H         3.117515         2.938521         1.223267
 H         4.487906         2.642831         0.137664
 H         1.586665         1.261240        -2.054292
 H         3.192689        -0.773682        -1.134474
