19
Iteration:   808
 C        -0.094363        -0.257025        -0.490332
 C         1.281066         0.315175        -0.196591
 C         1.937244         0.737963         1.195911
 C         3.407737         0.804615         0.703505
 O         4.406842         0.247235         1.623080
 C         3.657736         2.139204        -0.020929
 O         2.470867         2.431938        -0.773151
 C         2.008814         1.142998        -1.162275
 C         2.848149        -0.000527        -0.595726
 H        -0.214566        -1.007655         0.291213
 H        -0.716109         0.557245        -0.355483
 H        -0.137066        -0.766451        -1.445152
 H         1.498185         1.627153         1.582312
 H         1.892766        -0.141133         1.813285
 H         4.918619         1.108039         1.668760
 H         3.889230         2.932689         0.687991
 H         4.537913         2.103553        -0.683455
 H         1.779926         0.954869        -2.191364
 H         3.326468        -0.750947        -1.227854
