19
Iteration:   401
 C        -0.021935        -0.196827        -0.345811
 C         1.361636         0.283576        -0.069800
 C         1.865509         0.936625         1.224267
 C         3.331594         0.780181         0.693164
 O         4.365642         0.212743         1.493987
 C         3.703406         2.137234        -0.077269
 O         2.506211         2.399811        -0.886100
 C         2.064387         1.081470        -1.122343
 C         2.821141        -0.031978        -0.503781
 H        -0.438985        -0.899943         0.364355
 H        -0.694219         0.640241        -0.234663
 H        -0.073667        -0.670834        -1.302775
 H         1.439913         1.965490         1.290013
 H         1.579973         0.283216         2.087586
 H         4.982805        -0.189005         0.884288
 H         3.786203         2.971549         0.668263
 H         4.568869         1.957135        -0.842361
 H         1.538458         1.145548        -2.158777
 H         3.233349        -0.814056        -1.121410
