19
Iteration:  3207
 C         0.207707        -0.676173        -0.425024
 C         1.366599         0.351959        -0.271514
 C         1.854785         0.570978         1.188837
 C         3.288369         0.816558         0.684491
 O         4.180663         0.113805         1.409541
 C         3.523238         2.336903         0.356064
 O         2.621618         2.653496        -0.780481
 C         2.062610         1.325575        -1.198076
 C         2.828777         0.204579        -0.757658
 H         0.256355        -1.488700         0.194031
 H        -0.603906        -0.071052         0.034420
 H        -0.017026        -0.993930        -1.494814
 H         1.404540         1.249425         1.857194
 H         2.062098        -0.429837         1.604050
 H         4.999333         0.286211         1.953954
 H         3.106752         2.761706         1.295543
 H         4.507575         2.550195         0.064368
 H         1.820359         1.340073        -2.263555
 H         3.415353        -0.557313        -1.309672
