19
Iteration:  3561
 C         0.199361        -0.475209        -0.663543
 C         1.434354         0.164391        -0.280647
 C         1.837585         0.558447         1.243945
 C         3.279490         0.830817         0.663880
 O         4.322664         0.245903         1.479469
 C         3.603393         2.318955         0.172754
 O         2.384208         2.532473        -0.541894
 C         2.050842         1.269776        -1.125877
 C         2.944663         0.186286        -0.720653
 H         0.145700        -1.541733        -0.427136
 H        -0.694318         0.044538        -0.128157
 H         0.093662        -0.260283        -1.737590
 H         1.323171         1.446334         1.615431
 H         1.756850        -0.265498         1.914444
 H         3.761776        -0.242438         2.160554
 H         3.637883         3.097199         1.013185
 H         4.582356         2.178008        -0.459108
 H         1.701001         1.383528        -2.138942
 H         3.564821        -0.452141        -1.351273
