19
Iteration:  4569
 C         0.247733        -0.524694        -0.768039
 C         1.371540         0.226489        -0.240762
 C         1.769632         0.519580         1.217388
 C         3.296214         0.742442         0.708832
 O         4.337931         0.261829         1.542015
 C         3.639036         2.277543         0.101291
 O         2.407236         2.594976        -0.611194
 C         2.065355         1.333444        -1.042239
 C         2.904921         0.222091        -0.594128
 H         0.040150        -1.527654        -0.579865
 H        -0.629718         0.070574        -0.361202
 H         0.169375        -0.290306        -1.879140
 H         1.166474         1.362453         1.636999
 H         1.630537        -0.349670         1.864786
 H         4.104807        -0.530839         1.970153
 H         3.877253         3.113124         0.743700
 H         4.356438         1.955298        -0.657533
 H         1.645184         1.455894        -2.034068
 H         3.562998        -0.442198        -1.237286
