19
Iteration:   955charge 0 multiplicity 1
 C         0.058928        -0.341981        -0.537084
 C         1.396415         0.251840        -0.156008
 C         1.813588         0.873348         1.212225
 C         3.345704         0.850675         0.666844
 O         4.373366         0.292616         1.423826
 C         3.686561         2.223724         0.042913
 O         2.427007         2.363256        -0.644118
 C         2.066784         1.121437        -1.155156
 C         2.870763        -0.011838        -0.575446
 H        -0.301072        -1.106299         0.107520
 H        -0.666313         0.486882        -0.307664
 H         0.065942        -0.461873        -1.636276
 H         1.475062         1.815555         1.604193
 H         1.645703         0.187636         2.026404
 H         4.026425        -0.502554         1.812030
 H         3.886236         2.957990         0.861160
 H         4.550365         2.099280        -0.671048
 H         1.638948         1.211969        -2.175348
 H         3.389467        -0.711862        -1.137334
