19
Iteration:  1268charge 0 multiplicity 1
 C         0.068592        -0.465580        -0.607501
 C         1.374854         0.271327        -0.185204
 C         1.897387         0.740466         1.226544
 C         3.330808         0.826156         0.666158
 O         4.391193         0.188942         1.443319
 C         3.576612         2.261872         0.177402
 O         2.450727         2.491912        -0.658240
 C         2.040359         1.224175        -1.156525
 C         2.904740         0.103916        -0.652272
 H         0.079861        -1.553420        -0.366909
 H        -0.803808         0.098703        -0.208811
 H        -0.218849        -0.493552        -1.706744
 H         1.554099         1.694870         1.607397
 H         1.572853         0.023392         1.984569
 H         3.936248         0.029603         2.258955
 H         3.539047         3.061113         0.930703
 H         4.477447         2.407389        -0.459376
 H         1.968356         1.177475        -2.226753
 H         3.486884        -0.807353        -1.060945
