19
Iteration:  4656
 C         0.194049        -0.541706        -0.664496
 C         1.344359         0.302482        -0.194828
 C         1.836095         0.497326         1.301108
 C         3.257065         0.875202         0.732150
 O         4.293507         0.238409         1.355554
 C         3.442558         2.333550         0.414950
 O         2.668715         2.532292        -0.768874
 C         2.073729         1.311473        -1.173854
 C         2.849355         0.160725        -0.653265
 H         0.241720        -1.408195        -0.108025
 H        -0.737224         0.085610        -0.737716
 H         0.307051        -0.792757        -1.765801
 H         1.186602         1.159438         1.876130
 H         2.002644        -0.465341         1.828660
 H         4.110531        -0.681306         1.513915
 H         3.094935         3.096125         1.120679
 H         4.497376         2.515597         0.277566
 H         1.823622         1.501505        -2.253872
 H         3.492539        -0.521211        -1.343543
