19
Iteration:  4010charge 0 multiplicity 1
 C         0.177350        -0.441526        -0.721494
 C         1.459763         0.202430        -0.213364
 C         1.826941         0.569817         1.248877
 C         3.239125         0.842978         0.731874
 O         4.316593         0.291325         1.449194
 C         3.583759         2.257432         0.221446
 O         2.447108         2.549874        -0.617159
 C         2.076117         1.253748        -1.167768
 C         2.914422         0.107641        -0.701113
 H         0.025963        -1.359573        -0.156649
 H        -0.705256         0.248192        -0.533534
 H         0.110474        -0.593392        -1.785109
 H         1.281965         1.368494         1.760019
 H         1.808096        -0.333219         1.842414
 H         4.003439        -0.348785         2.154378
 H         3.490308         2.946444         1.089780
 H         4.599687         2.515472        -0.224353
 H         1.613608         1.264155        -2.171584
 H         3.603053        -0.591282        -1.132754
