19
Iteration:  4801
 C         0.146292        -0.680483        -0.756085
 C         1.306726         0.317259        -0.229143
 C         1.683503         0.612137         1.209510
 C         3.259147         0.832240         0.790559
 O         4.454012         0.241423         1.340727
 C         3.587562         2.248465         0.412052
 O         2.671695         2.563441        -0.725168
 C         2.048030         1.373233        -1.207859
 C         2.796472         0.240487        -0.558202
 H         0.399480        -1.511242        -0.050618
 H        -0.889854        -0.360774        -0.505664
 H         0.095412        -1.136973        -1.797661
 H         1.166689         1.356112         1.902122
 H         1.582015        -0.287234         1.798667
 H         4.166250        -0.495153         1.942441
 H         3.322871         3.002605         1.184496
 H         4.575144         2.246640         0.032363
 H         1.518920         1.278654        -2.113757
 H         3.507318        -0.196519        -1.240049
