19
Iteration:  4783charge 0 multiplicity 1
 C         0.251242        -0.697058        -0.648237
 C         1.264270         0.371215        -0.238415
 C         1.745544         0.586039         1.237428
 C         3.218560         0.832996         0.720899
 O         4.381256         0.187804         1.385711
 C         3.529185         2.325254         0.392623
 O         2.687614         2.609081        -0.738281
 C         2.035900         1.387321        -1.163598
 C         2.823343         0.171269        -0.669633
 H         0.375355        -1.760833        -0.271476
 H        -0.750904        -0.395770        -0.425663
 H         0.408470        -0.662150        -1.688390
 H         1.268814         1.377377         1.847425
 H         1.669056        -0.295018         1.905839
 H         4.122165        -0.696686         1.719809
 H         3.188522         3.008649         1.190739
 H         4.594232         2.452185         0.041118
 H         1.839116         1.429731        -2.257434
 H         3.151284        -0.836276        -1.060854
