19
Iteration:  4934
 C         0.273517        -0.627231        -0.729364
 C         1.299440         0.309448        -0.102523
 C         1.862578         0.562041         1.272538
 C         3.240972         0.851203         0.755515
 O         4.320204         0.164849         1.376277
 C         3.466675         2.324821         0.383338
 O         2.711973         2.546875        -0.836900
 C         2.031877         1.354178        -1.163895
 C         2.767990         0.224503        -0.619530
 H         0.418672        -1.764306        -0.382345
 H        -0.741288        -0.252011        -0.589176
 H         0.456387        -0.628359        -1.803996
 H         1.395871         1.532493         1.637099
 H         1.910033        -0.322458         1.867786
 H         3.906497        -0.577969         1.926559
 H         2.940079         2.869853         1.246965
 H         4.413286         2.856964         0.271141
 H         1.562548         1.504028        -2.159679
 H         3.292699        -0.506518        -1.264372
