19
Iteration:  2077charge 0 multiplicity 1
 C         0.166664        -0.541793        -0.465938
 C         1.403271         0.289886        -0.217614
 C         1.849880         0.729964         1.185818
 C         3.307434         0.758998         0.600513
 O         4.301822         0.234277         1.368552
 C         3.538295         2.307998         0.309839
 O         2.515794         2.530464        -0.625765
 C         1.998469         1.292930        -1.176321
 C         2.893892         0.112220        -0.699597
 H         0.259984        -1.513029         0.034108
 H        -0.765028        -0.017860        -0.164462
 H        -0.005808        -0.990116        -1.493026
 H         1.352129         1.631760         1.558810
 H         1.783960        -0.135047         1.824078
 H         4.378120        -0.755902         1.190580
 H         3.566227         2.915049         1.218585
 H         4.478837         2.578707        -0.039655
 H         1.756320         1.336531        -2.269878
 H         3.595593        -0.598892        -1.247177
