19
Iteration:  3758charge 0 multiplicity 1
 C         0.275097        -0.588659        -0.719555
 C         1.371556         0.388236        -0.139006
 C         1.795763         0.665535         1.302620
 C         3.246488         0.745993         0.706390
 O         4.371304         0.181450         1.464120
 C         3.432728         2.363474         0.334966
 O         2.604074         2.549718        -0.812875
 C         2.044083         1.294335        -1.194491
 C         2.819732         0.162658        -0.599322
 H         0.500026        -1.587673        -0.349113
 H        -0.826293        -0.316190        -0.484329
 H         0.424360        -0.688388        -1.791202
 H         1.227058         1.468153         1.932623
 H         1.681907        -0.314103         1.822667
 H         4.469354        -0.742938         1.251739
 H         3.144634         2.993139         1.176998
 H         4.482881         2.500032         0.141756
 H         1.628318         1.288345        -2.214131
 H         3.218903        -0.585883        -1.267797
