19
Iteration:   207
 C        -0.065486        -0.224405        -0.264524
 C         1.263925         0.386461        -0.058060
 C         1.898484         1.004708         1.248282
 C         3.347842         0.789593         0.661124
 O         4.437069         0.246751         1.338273
 C         3.704727         2.147737         0.053014
 O         2.650349         2.304021        -0.971929
 C         2.049863         1.038033        -1.212846
 C         2.715253        -0.049623        -0.522257
 H        -0.301568        -0.888844         0.639351
 H        -0.880937         0.555397        -0.306299
 H        -0.106288        -0.842414        -1.201087
 H         1.676776         2.026544         1.610204
 H         1.535677         0.427602         2.098167
 H         4.190922        -0.308342         2.088279
 H         3.516192         2.918029         0.802598
 H         4.723435         2.286476        -0.431662
 H         1.589939         1.008459        -2.259722
 H         3.072669        -1.030999        -0.837976
