19
Iteration:  3564
 C         0.190651        -0.466143        -0.660727
 C         1.446233         0.171307        -0.289090
 C         1.856459         0.567816         1.219048
 C         3.270123         0.858672         0.690735
 O         4.341295         0.222029         1.501079
 C         3.596923         2.315945         0.178365
 O         2.384323         2.525427        -0.555912
 C         2.046104         1.267573        -1.123414
 C         2.932095         0.175745        -0.728615
 H         0.150349        -1.583824        -0.363933
 H        -0.660550        -0.027571        -0.205200
 H        -0.070782        -0.317251        -1.702535
 H         1.312743         1.413336         1.583310
 H         1.756600        -0.248056         1.933449
 H         3.769909        -0.279357         2.092271
 H         3.660173         3.094611         0.999477
 H         4.522776         2.335457        -0.424051
 H         1.700287         1.447063        -2.163647
 H         3.566125        -0.402369        -1.365871
