19
Iteration:  4296
 C         0.119795        -0.414384        -0.840206
 C         1.268548         0.232263        -0.285198
 C         1.937197         0.586624         1.233575
 C         3.475591         0.831807         0.678182
 O         4.381234         0.313658         1.522165
 C         3.560091         2.256030         0.240191
 O         2.373429         2.460701        -0.581569
 C         1.984994         1.269022        -1.065684
 C         2.906903         0.104155        -0.625869
 H        -0.101183        -1.537970        -0.714770
 H        -0.778788         0.171277        -0.684176
 H         0.455802        -0.346318        -1.933591
 H         1.409009         1.355542         1.936106
 H         2.062785        -0.369864         1.776937
 H         4.145987        -0.383201         2.088763
 H         3.384449         2.849127         1.122659
 H         4.490299         2.563055        -0.252283
 H         1.641048         1.402514        -2.104854
 H         3.555619        -0.396534        -1.359138
