19
Iteration:  1300charge 0 multiplicity 1
 C         0.232421        -0.510273        -0.444754
 C         1.405610         0.338019        -0.239974
 C         1.837835         0.708038         1.268361
 C         3.252785         0.810171         0.659110
 O         4.213373         0.067645         1.350560
 C         3.450946         2.322334         0.304578
 O         2.641226         2.513585        -0.812602
 C         2.040498         1.255068        -1.145889
 C         2.868583         0.156733        -0.668222
 H         0.243670        -1.340660         0.284746
 H        -0.716327        -0.034140        -0.138691
 H         0.296714        -0.922778        -1.450096
 H         1.388522         1.636016         1.587962
 H         1.645748        -0.256783         1.745734
 H         4.967517         0.678681         1.556293
 H         3.119589         2.980441         1.123298
 H         4.496652         2.538274         0.096675
 H         1.840494         1.331024        -2.184071
 H         3.355614        -0.793684        -1.100191
