19
Iteration:   963charge 0 multiplicity 1
 C         0.080986        -0.299619        -0.489765
 C         1.406468         0.238069        -0.150029
 C         1.876221         0.821834         1.213388
 C         3.249988         0.818846         0.701789
 O         4.388786         0.304278         1.397501
 C         3.660258         2.129506         0.048987
 O         2.436282         2.409043        -0.650450
 C         2.059873         1.129941        -1.205659
 C         2.863769         0.026511        -0.566934
 H        -0.335404        -1.253300        -0.045952
 H        -0.567792         0.533441        -0.454031
 H         0.141504        -0.480842        -1.656155
 H         1.510918         1.890914         1.445222
 H         1.673700         0.163292         2.124149
 H         4.060914        -0.188510         2.139826
 H         3.670854         3.006478         0.742670
 H         4.623190         2.078084        -0.539486
 H         1.622893         1.244021        -2.255136
 H         3.408683        -0.711928        -1.136468
