19
Iteration:  2973charge 0 multiplicity 1
 C         0.073123        -0.482575        -0.502316
 C         1.382380         0.209650        -0.280183
 C         1.835322         0.561477         1.090549
 C         3.336247         0.785665         0.587440
 O         4.250413         0.446887         1.531486
 C         3.640383         2.196623         0.148052
 O         2.526121         2.545323        -0.524950
 C         2.095088         1.261786        -1.136335
 C         2.880302         0.110556        -0.720325
 H        -0.083494        -1.504622         0.047752
 H        -0.762666         0.220741        -0.152700
 H        -0.032526        -0.716714        -1.541801
 H         1.494161         1.479094         1.574744
 H         1.685308        -0.386645         1.767969
 H         4.278593        -0.476593         1.832775
 H         3.777762         2.696656         1.193805
 H         4.564462         2.241030        -0.508090
 H         1.681785         1.486448        -2.133878
 H         3.436904        -0.540420        -1.486728
