19
Iteration:  1617charge 0 multiplicity 1
 C         0.213960        -0.506092        -0.610957
 C         1.396494         0.355688        -0.170556
 C         1.805646         0.696608         1.293658
 C         3.294056         0.852512         0.730824
 O         4.296252         0.091134         1.311957
 C         3.404727         2.398978         0.375023
 O         2.592825         2.492772        -0.815956
 C         2.161858         1.270205        -1.133825
 C         2.819002         0.034187        -0.579200
 H         0.380388        -1.515178        -0.173009
 H        -0.858836        -0.169970        -0.305934
 H         0.244789        -0.597328        -1.746668
 H         1.294523         1.498122         1.710212
 H         1.557218         0.014322         2.113209
 H         4.934251        -0.179993         0.589279
 H         2.949213         3.143515         1.093311
 H         4.349487         2.877216         0.132644
 H         1.835949         1.109814        -2.138362
 H         3.319760        -0.668704        -1.133705
