19
Iteration:  4705
 C         0.131369        -0.377113        -0.710221
 C         1.419066         0.238439        -0.310055
 C         1.808596         0.552480         1.181567
 C         3.238879         0.773260         0.717422
 O         4.387644         0.427438         1.465440
 C         3.561828         2.194685         0.303162
 O         2.420296         2.505419        -0.511028
 C         2.136779         1.217624        -1.185183
 C         2.905422         0.114230        -0.712191
 H         0.098990        -1.373523        -0.133292
 H        -0.624318         0.350487        -0.638209
 H         0.119515        -0.583576        -1.747729
 H         1.293300         1.376968         1.762639
 H         1.464820        -0.385596         1.630074
 H         4.329333        -0.497947         1.870604
 H         3.705877         2.818706         1.237193
 H         4.534440         2.091250        -0.297237
 H         1.673898         1.385309        -2.107362
 H         3.433354        -0.580121        -1.318693
