19
Iteration:   759charge 0 multiplicity 1
 C         0.060343        -0.446437        -0.289750
 C         1.281380         0.415196        -0.115870
 C         1.768795         0.807491         1.262546
 C         3.303345         0.784164         0.663190
 O         4.343283         0.208733         1.421019
 C         3.610442         2.260592         0.151493
 O         2.735685         2.414177        -0.971427
 C         2.076295         1.222309        -1.211848
 C         2.771937         0.043956        -0.559165
 H        -0.074754        -1.195534         0.475459
 H        -0.857097         0.197701        -0.503808
 H         0.362235        -1.000586        -1.171420
 H         1.633870         1.851183         1.681470
 H         1.615616        -0.028601         2.000344
 H         4.243752        -0.726305         1.185097
 H         3.370690         3.080931         0.876817
 H         4.598046         2.516786        -0.251563
 H         1.555284         1.147981        -2.167296
 H         3.204597        -0.774335        -1.195373
