19
Iteration:  2906
 C         0.203048        -0.526092        -0.657363
 C         1.309086         0.306872        -0.087704
 C         1.836328         0.668511         1.308330
 C         3.279695         0.820153         0.715493
 O         4.416397         0.262972         1.286181
 C         3.457717         2.330754         0.376803
 O         2.674931         2.478843        -0.800919
 C         2.095703         1.287746        -1.212031
 C         2.727670         0.105602        -0.574360
 H        -0.062514        -1.552474        -0.113320
 H        -0.767663        -0.046792        -0.590520
 H         0.404875        -0.782851        -1.675311
 H         1.351425         1.545923         1.771012
 H         1.624707        -0.208123         2.045881
 H         4.231765        -0.719326         1.121380
 H         2.964152         3.011407         1.178882
 H         4.557648         2.504375         0.145134
 H         1.457855         1.245165        -2.111012
 H         3.256372        -0.698700        -1.034080
