19
Iteration:  4094charge 0 multiplicity 1
 C         0.038044        -0.548471        -0.555573
 C         1.372307         0.325361        -0.300293
 C         1.835365         0.547041         1.188640
 C         3.297689         0.776496         0.725039
 O         4.433126         0.229757         1.448835
 C         3.430964         2.323165         0.465836
 O         2.532405         2.586143        -0.794304
 C         2.160888         1.268917        -1.251506
 C         2.944088         0.220635        -0.665364
 H         0.062362        -1.545374        -0.110747
 H        -0.845706         0.091287        -0.084891
 H        -0.282018        -0.710752        -1.601565
 H         1.308568         1.295297         1.788796
 H         1.476697        -0.478144         1.696011
 H         4.151705        -0.664695         1.539529
 H         3.200297         2.902657         1.392384
 H         4.319695         2.657711        -0.041425
 H         2.003901         1.085689        -2.328228
 H         3.593044        -0.552981        -1.072031
