19
Iteration:  1534
 C         0.153156        -0.382031        -0.578473
 C         1.411345         0.249972        -0.249342
 C         1.842698         0.630593         1.175133
 C         3.372048         0.770804         0.609820
 O         4.257314         0.288702         1.658504
 C         3.621407         2.192360         0.127402
 O         2.414838         2.491344        -0.542511
 C         2.022848         1.243465        -1.178995
 C         2.882666         0.070727        -0.759534
 H        -0.094598        -1.322361        -0.051441
 H        -0.631257         0.337052        -0.335076
 H         0.132105        -0.591081        -1.689670
 H         1.318369         1.578175         1.577979
 H         1.830963        -0.282494         1.790001
 H         5.083978         0.644347         1.392342
 H         3.681264         3.003115         0.867129
 H         4.525936         2.254874        -0.526935
 H         1.585836         1.274297        -2.167245
 H         3.510028        -0.610530        -1.513678
