19
Iteration:   608charge 0 multiplicity 1
 C         0.030977        -0.361246        -0.357665
 C         1.227334         0.400698        -0.074554
 C         1.904008         0.808337         1.259294
 C         3.282451         0.921979         0.684197
 O         4.331915         0.052238         1.377501
 C         3.549634         2.304849         0.159181
 O         2.790296         2.380118        -1.070653
 C         2.043611         1.094227        -1.171608
 C         2.730911         0.068558        -0.463482
 H        -0.221733        -0.933691         0.584288
 H        -0.896438         0.304177        -0.486180
 H         0.166856        -0.938915        -1.275011
 H         1.467448         1.561238         1.875384
 H         1.963424         0.003244         1.990007
 H         5.128505         0.631349         1.308190
 H         3.222544         3.100112         0.908183
 H         4.556667         2.506967        -0.318354
 H         1.708481         0.997038        -2.147598
 H         3.104745        -0.926554        -0.849242
