19
Iteration:  3293charge 0 multiplicity 1
 C         0.259449        -0.434294        -0.697630
 C         1.372548         0.257903        -0.220484
 C         1.882319         0.521937         1.238141
 C         3.275074         0.775405         0.754800
 O         4.436187         0.270253         1.418256
 C         3.498118         2.191216         0.214319
 O         2.467600         2.571409        -0.639154
 C         1.985436         1.300907        -1.117407
 C         2.781998         0.144185        -0.687175
 H         0.038832        -1.441635        -0.242911
 H        -0.634419         0.236851        -0.595384
 H         0.351600        -0.622469        -1.839771
 H         1.282273         1.269401         1.733590
 H         1.891370        -0.378305         1.944183
 H         4.234350         0.486882         2.337918
 H         3.518146         3.047771         1.058620
 H         4.513589         2.222514        -0.335271
 H         1.644566         1.315575        -2.143640
 H         3.419130        -0.607237        -1.260569
