19
Iteration:  4858charge 0 multiplicity 1
 C         0.030803        -0.337498        -0.685291
 C         1.443696         0.160849        -0.280531
 C         1.850420         0.537915         1.064551
 C         3.413257         0.782344         0.642794
 O         4.378768         0.245660         1.662462
 C         3.493700         2.294100         0.269062
 O         2.348318         2.525525        -0.607262
 C         2.090820         1.257924        -1.145702
 C         2.995627         0.187363        -0.697707
 H        -0.231013        -1.303280        -0.041975
 H        -0.688078         0.352587        -0.318580
 H         0.069911        -0.604790        -1.719119
 H         1.396671         1.509051         1.488263
 H         1.801354        -0.307063         1.740451
 H         4.085130        -0.670064         1.822236
 H         3.593731         3.125881         0.985536
 H         4.377177         2.481880        -0.344958
 H         1.952820         1.105774        -2.250675
 H         3.568081        -0.540249        -1.304986
