19
Iteration:   675
 C        -0.112539        -0.362622        -0.371036
 C         1.288607         0.318374        -0.180335
 C         1.909412         0.771280         1.197282
 C         3.343316         0.776828         0.651660
 O         4.383356         0.391309         1.630797
 C         3.766766         2.115895        -0.082703
 O         2.567298         2.489182        -0.768589
 C         2.084724         1.134966        -1.191924
 C         2.763799        -0.010736        -0.688686
 H        -0.151952        -1.412905         0.069414
 H        -0.952738         0.141805         0.148751
 H        -0.550002        -0.434012        -1.381209
 H         1.660827         1.653350         1.732207
 H         2.017600         0.058886         2.011791
 H         3.789121        -0.058033         2.268457
 H         4.140653         2.948335         0.621416
 H         4.761716         1.856722        -0.694282
 H         1.722028         1.088665        -2.296308
 H         3.207611        -0.771639        -1.351562
