19
Iteration:  1247charge 0 multiplicity 1
 C         0.097395        -0.395265        -0.594316
 C         1.342968         0.247244        -0.222270
 C         1.838616         0.658674         1.171805
 C         3.292078         0.828003         0.628208
 O         4.380852         0.423357         1.551880
 C         3.721178         2.158394         0.109196
 O         2.432579         2.484694        -0.577557
 C         2.073529         1.211075        -1.145538
 C         2.815903         0.051897        -0.601904
 H         0.188676        -1.522700        -0.515052
 H        -0.814648         0.098885        -0.169881
 H        -0.166592        -0.399460        -1.756482
 H         1.286538         1.390070         1.750323
 H         1.825047        -0.284708         1.760993
 H         4.274328        -0.557739         1.473715
 H         3.935213         2.974267         0.816847
 H         4.573531         2.070104        -0.689076
 H         1.636203         1.304946        -2.125807
 H         3.445318        -0.631073        -1.326712
