19
Iteration:  2518
 C         0.000491        -0.490823        -0.700588
 C         1.352911         0.260413        -0.182691
 C         1.914135         0.613043         1.256302
 C         3.309324         0.771646         0.694623
 O         4.491244         0.436151         1.447874
 C         3.583288         2.177526         0.242953
 O         2.476531         2.512768        -0.693989
 C         2.025082         1.267942        -1.071217
 C         2.834932         0.088704        -0.659410
 H        -0.129165        -1.693092        -0.615550
 H        -0.923241        -0.041433        -0.374276
 H        -0.026043        -0.352244        -1.894111
 H         1.418106         1.486326         1.759676
 H         1.730060        -0.343081         1.807536
 H         4.568384        -0.511669         1.800228
 H         3.555282         2.879679         1.102726
 H         4.530827         2.288657        -0.265281
 H         1.488586         1.428405        -2.021342
 H         3.445365        -0.494818        -1.379449
