19
Iteration:  1512charge 0 multiplicity 1
 C         0.114155        -0.466942        -0.648627
 C         1.379507         0.225335        -0.241016
 C         1.835730         0.767249         1.155883
 C         3.355813         0.755736         0.742301
 O         4.363535         0.178532         1.484415
 C         3.507483         2.241552         0.249309
 O         2.406621         2.546548        -0.644379
 C         2.110036         1.243218        -1.197212
 C         2.892527         0.113720        -0.565587
 H        -0.084427        -1.362460        -0.016117
 H        -0.724229         0.217997        -0.479395
 H         0.079613        -0.797169        -1.726374
 H         1.525450         1.821535         1.425394
 H         1.734804         0.082249         2.005489
 H         5.232869         0.197255         0.949376
 H         3.388905         3.020404         1.004426
 H         4.489725         2.334692        -0.246295
 H         1.718094         1.178885        -2.187814
 H         3.347854        -0.774527        -1.164098
