19
Iteration:  1160charge 0 multiplicity 1
 C         0.119237        -0.482394        -0.424010
 C         1.423277         0.348798        -0.191512
 C         1.753631         0.745165         1.305133
 C         3.234205         0.804670         0.742338
 O         4.412026         0.164328         1.292546
 C         3.430131         2.249319         0.306606
 O         2.638648         2.504355        -0.841044
 C         2.089283         1.187683        -1.254080
 C         2.905522         0.184274        -0.610754
 H        -0.059715        -1.219475         0.410286
 H        -0.760717         0.149773        -0.363079
 H         0.284951        -1.004607        -1.443947
 H         1.486182         1.789952         1.464209
 H         1.415239         0.004137         2.037927
 H         3.956890        -0.607429         1.571448
 H         3.174381         2.901044         1.140475
 H         4.490072         2.435185         0.019464
 H         1.781811         1.059164        -2.266151
 H         3.346246        -0.572205        -1.350968
