19
Iteration:   617charge 0 multiplicity 1
 C        -0.081328        -0.355553        -0.360865
 C         1.258746         0.415945        -0.107927
 C         1.855190         0.825332         1.313815
 C         3.303689         0.860724         0.711190
 O         4.351499         0.068374         1.383382
 C         3.578790         2.352278         0.083300
 O         2.705806         2.361950        -1.027967
 C         2.087246         1.103965        -1.177819
 C         2.808013         0.061577        -0.453088
 H        -0.170821        -1.139948         0.361775
 H        -0.987739         0.294494        -0.466218
 H         0.136841        -0.895932        -1.258713
 H         1.514172         1.783395         1.717398
 H         1.877327        -0.018035         2.005755
 H         5.249764         0.275848         1.048781
 H         3.197807         3.090943         0.815839
 H         4.751693         2.517969        -0.100655
 H         1.894013         0.981028        -2.186832
 H         3.274144        -0.872657        -0.799541
