19
Iteration:  3475
 C         0.242393        -0.526009        -0.480540
 C         1.503287         0.224558        -0.231921
 C         1.714619         0.547300         1.202727
 C         3.239453         0.858634         0.644851
 O         4.265767         0.056623         1.291526
 C         3.401676         2.347682         0.419981
 O         2.496955         2.578560        -0.714550
 C         2.141564         1.310677        -1.197860
 C         3.006589         0.266705        -0.737970
 H         0.155667        -1.375361         0.316722
 H        -0.630513         0.162164        -0.513380
 H         0.276167        -0.879914        -1.495289
 H         0.991426         1.200687         1.716370
 H         1.864123        -0.344745         1.836792
 H         4.767633         0.367298         2.080135
 H         3.075847         3.022074         1.301289
 H         4.425394         2.620239         0.376166
 H         1.694343         1.373882        -2.155227
 H         3.559193        -0.584100        -1.203516
