19
Iteration:   822charge 0 multiplicity 1
 C        -0.045585        -0.244699        -0.459677
 C         1.395130         0.259959        -0.146886
 C         1.899727         0.803511         1.237022
 C         3.350609         0.761249         0.627338
 O         4.352554         0.326042         1.569484
 C         3.662140         2.165172         0.034627
 O         2.447440         2.400130        -0.728133
 C         2.067387         1.100349        -1.247481
 C         2.846277         0.007142        -0.571877
 H        -0.506354        -1.142347        -0.012166
 H        -0.883569         0.486330        -0.336146
 H        -0.147186        -0.421972        -1.584045
 H         1.611241         1.745077         1.685516
 H         1.831847         0.036005         1.999545
 H         5.292092         0.198411         1.297241
 H         3.696643         3.007824         0.731940
 H         4.510957         1.966742        -0.643483
 H         1.688313         1.212433        -2.234657
 H         3.374180        -0.863023        -1.098056
