19
Iteration:  2265
 C         0.161581        -0.451951        -0.755490
 C         1.331404         0.307630        -0.177258
 C         1.898219         0.726370         1.326986
 C         3.303681         0.857402         0.669098
 O         4.408675         0.346849         1.320967
 C         3.588990         2.191963         0.118439
 O         2.399104         2.435236        -0.478914
 C         2.062970         1.262733        -1.148071
 C         2.837419         0.016679        -0.577239
 H         0.308916        -1.442688        -0.359444
 H        -0.778151        -0.045565        -0.433393
 H         0.264934        -0.537023        -1.945452
 H         1.415641         1.604393         1.782195
 H         1.783684        -0.211692         1.931710
 H         4.151478        -0.338489         1.945843
 H         3.864261         2.923782         0.972147
 H         4.479010         2.348440        -0.629304
 H         1.631941         1.206843        -2.190253
 H         3.120663        -0.862886        -1.081703
