19
Iteration:   445
 C         0.053160        -0.309238        -0.182438
 C         1.336439         0.459517        -0.086663
 C         1.798033         0.811556         1.305982
 C         3.291033         0.755030         0.648605
 O         4.379550         0.263431         1.403221
 C         3.578929         2.171077         0.055762
 O         2.788982         2.404511        -1.075598
 C         2.046561         1.155994        -1.218288
 C         2.698588        -0.012908        -0.609106
 H         0.121079        -1.149631         0.531665
 H        -0.836422         0.282181         0.141184
 H        -0.094178        -0.747261        -1.167862
 H         1.492521         1.809341         1.712097
 H         1.706850         0.043479         2.129853
 H         3.956314        -0.377240         1.976101
 H         3.279783         2.923196         0.828026
 H         4.724063         2.091224        -0.186778
 H         1.565242         1.032595        -2.222478
 H         3.147009        -0.883298        -1.034003
