19
Iteration:  3153
 C         0.190664        -0.439622        -0.657255
 C         1.356104         0.305517        -0.163503
 C         1.830121         0.668494         1.224592
 C         3.313247         0.760673         0.668952
 O         4.417291         0.289511         1.377677
 C         3.526891         2.294998         0.269703
 O         2.440889         2.499310        -0.654489
 C         2.057776         1.265848        -1.180671
 C         2.840598         0.063001        -0.591253
 H         0.240238        -1.451957        -0.364142
 H        -0.822379         0.041369        -0.552503
 H         0.256075        -0.533282        -1.802665
 H         1.345574         1.503610         1.824737
 H         1.857873        -0.226167         1.909012
 H         4.394261        -0.696080         1.659667
 H         3.508867         2.930121         1.154833
 H         4.494314         2.474865        -0.251493
 H         1.575531         1.232482        -2.174110
 H         3.412555        -0.833096        -0.883813
