19
Iteration:  1983
 C         0.067302        -0.404920        -0.666988
 C         1.331666         0.274113        -0.192538
 C         1.889033         0.578932         1.239063
 C         3.331159         0.678902         0.693739
 O         4.458871         0.444422         1.486752
 C         3.588371         2.159220         0.164022
 O         2.391197         2.524559        -0.654361
 C         2.025255         1.269017        -1.096293
 C         2.821211         0.100523        -0.651495
 H         0.217910        -1.457172        -0.379298
 H        -0.807865         0.111452        -0.324249
 H         0.172671        -0.430892        -1.787743
 H         1.343968         1.392857         1.703729
 H         2.025167        -0.325984         1.911017
 H         4.395303        -0.475608         1.786607
 H         4.040564         2.892326         0.817845
 H         4.433563         2.217206        -0.549663
 H         1.790305         1.347639        -2.147029
 H         3.511802        -0.554320        -1.279266
