19
Iteration:   458
 C         0.043194        -0.366765        -0.158915
 C         1.296027         0.425776        -0.060997
 C         1.742666         0.802120         1.348572
 C         3.179860         0.754719         0.688232
 O         4.429266         0.266989         1.372257
 C         3.658532         2.169108         0.107368
 O         2.847504         2.370260        -1.104535
 C         2.021909         1.212311        -1.274713
 C         2.696638         0.020626        -0.658549
 H         0.295966        -1.223521         0.453853
 H        -0.793721         0.133538         0.163491
 H        -0.203827        -0.667706        -1.168292
 H         1.243958         1.714445         1.774236
 H         1.321076        -0.064337         1.912267
 H         4.339956         0.251320         2.386293
 H         3.748521         3.048644         0.770760
 H         4.786111         2.157366        -0.258288
 H         1.566326         1.258667        -2.184655
 H         2.993037        -0.940126        -1.110294
