19
Iteration:  4693charge 0 multiplicity 1
 C         0.203803        -0.372957        -0.774487
 C         1.415719         0.306028        -0.252855
 C         1.833164         0.533395         1.249718
 C         3.297294         0.757085         0.762866
 O         4.449170         0.380110         1.547497
 C         3.491996         2.163783         0.348838
 O         2.440895         2.482806        -0.618533
 C         2.049923         1.334264        -1.239936
 C         2.796594         0.067969        -0.777076
 H        -0.136410        -1.288696        -0.178737
 H        -0.656148         0.168244        -0.578812
 H         0.332525        -0.706110        -1.790721
 H         1.417147         1.439880         1.795867
 H         1.897589        -0.315616         1.905691
 H         4.285682        -0.518667         1.778036
 H         3.415838         3.012525         1.105486
 H         4.496331         2.247156        -0.173611
 H         1.657234         1.385770        -2.248344
 H         3.367659        -0.617527        -1.341014
