19
Iteration:  4860charge 0 multiplicity 1
 C         0.017076        -0.345605        -0.673892
 C         1.445712         0.162532        -0.291884
 C         1.831425         0.520313         1.064459
 C         3.416059         0.789393         0.647680
 O         4.374691         0.249059         1.651748
 C         3.500865         2.283686         0.267572
 O         2.347293         2.547632        -0.605437
 C         2.123080         1.250886        -1.147012
 C         2.995452         0.183643        -0.678907
 H        -0.235038        -1.298636        -0.077710
 H        -0.705832         0.370501        -0.345938
 H         0.028265        -0.591229        -1.692515
 H         1.359853         1.454737         1.373665
 H         1.866804        -0.302670         1.787976
 H         4.134082        -0.637859         1.816069
 H         3.601068         3.100998         0.951821
 H         4.393447         2.506592        -0.337845
 H         1.840993         1.102384        -2.236939
 H         3.587933        -0.505362        -1.289646
