19
Iteration:  3513charge 0 multiplicity 1
 C         0.170002        -0.616601        -0.713761
 C         1.286250         0.358236        -0.211906
 C         1.813174         0.585575         1.216878
 C         3.317713         0.799149         0.732995
 O         4.509385         0.176999         1.394667
 C         3.496348         2.288070         0.384233
 O         2.509705         2.566663        -0.699819
 C         2.046343         1.302085        -1.141001
 C         2.842039         0.205933        -0.664820
 H         0.058107        -1.572254        -0.208569
 H        -0.888526        -0.220205        -0.732694
 H         0.324576        -0.789640        -1.857233
 H         1.245105         1.395077         1.779324
 H         1.684048        -0.451997         1.714152
 H         4.377295         0.562879         2.238078
 H         3.245811         2.761438         1.323811
 H         4.435658         2.702444        -0.207451
 H         1.737660         1.361864        -2.212716
 H         3.199351        -0.633064        -1.249259
