19
Iteration:  4812charge 0 multiplicity 1
 C         0.205366        -0.626528        -0.679314
 C         1.352677         0.309027        -0.310197
 C         1.731597         0.597399         1.247531
 C         3.210391         0.782287         0.763906
 O         4.379813         0.290250         1.338794
 C         3.547139         2.239573         0.335029
 O         2.632424         2.618952        -0.670375
 C         2.028709         1.333578        -1.121391
 C         2.839573         0.117827        -0.611548
 H         0.040891        -1.595530        -0.162471
 H        -0.707469        -0.009103        -0.541793
 H         0.360508        -0.802223        -1.781624
 H         1.247539         1.516162         1.710073
 H         1.620089        -0.325286         1.792912
 H         4.289847        -0.447381         2.015509
 H         3.452848         2.978033         1.176826
 H         4.571009         2.337810         0.029999
 H         1.950764         1.383622        -2.183660
 H         3.374110        -0.530043        -1.303822
