19
Iteration:  2917
 C         0.214430        -0.455340        -0.633148
 C         1.391360         0.343075        -0.148173
 C         1.842327         0.698446         1.286182
 C         3.234570         0.847575         0.678431
 O         4.364921         0.219908         1.297040
 C         3.453881         2.269319         0.459216
 O         2.560041         2.520312        -0.874420
 C         2.107936         1.202527        -1.164228
 C         2.795357         0.071737        -0.565593
 H         0.261227        -1.387083         0.120034
 H        -0.726345         0.082530        -0.631778
 H         0.380440        -0.831177        -1.623277
 H         1.519497         1.590595         1.831848
 H         1.916542        -0.254019         1.961285
 H         4.360882        -0.717875         1.053189
 H         3.143208         2.900758         1.390246
 H         4.462999         2.662848         0.173078
 H         1.521288         1.273732        -2.100714
 H         3.263270        -0.803229        -0.960097
