19
Iteration:  3783charge 0 multiplicity 1
 C         0.175326        -0.633782        -0.803101
 C         1.343260         0.318051        -0.146981
 C         1.742114         0.663156         1.269152
 C         3.238777         0.886180         0.735457
 O         4.383390         0.284141         1.281471
 C         3.542842         2.318656         0.392139
 O         2.630122         2.510424        -0.753450
 C         2.121769         1.286312        -1.122520
 C         2.800452         0.128371        -0.481538
 H         0.227264        -1.668090        -0.335775
 H        -0.752839        -0.220790        -0.586226
 H         0.334071        -0.826808        -1.863661
 H         0.990297         1.302509         1.774325
 H         1.726784        -0.300108         1.791685
 H         4.205460        -0.680939         1.356367
 H         3.175567         3.108551         1.123865
 H         4.636513         2.431957         0.185847
 H         1.703173         1.352597        -2.102600
 H         3.348673        -0.720563        -0.968038
