19
Iteration:  3587
 C         0.140824        -0.561287        -0.533088
 C         1.373566         0.284461        -0.364446
 C         1.879070         0.664206         1.125415
 C         3.358183         0.738714         0.629103
 O         4.372854         0.216647         1.559764
 C         3.493350         2.320821         0.364590
 O         2.426947         2.578873        -0.649546
 C         2.061061         1.279561        -1.218820
 C         2.953117         0.179825        -0.700809
 H         0.203307        -1.611149        -0.054778
 H        -0.736146        -0.075658        -0.202487
 H        -0.031497        -0.553786        -1.618661
 H         1.443458         1.510106         1.631146
 H         1.666765        -0.251479         1.716009
 H         4.074559        -0.744681         1.535380
 H         3.209460         2.908737         1.261859
 H         4.515085         2.552375         0.061603
 H         1.774314         1.393501        -2.299949
 H         3.357114        -0.642200        -1.278479
