19
Iteration:  4299charge 0 multiplicity 1
 C         0.126413        -0.412933        -0.856781
 C         1.298573         0.256835        -0.250562
 C         1.936548         0.590010         1.241067
 C         3.459148         0.816761         0.686500
 O         4.363315         0.310945         1.504706
 C         3.557961         2.275120         0.258270
 O         2.380180         2.457047        -0.583887
 C         1.974946         1.243319        -1.070749
 C         2.918985         0.106776        -0.652081
 H        -0.068372        -1.512037        -0.621325
 H        -0.715672         0.172154        -0.688186
 H         0.370003        -0.457737        -1.952347
 H         1.458405         1.353602         1.988016
 H         2.029977        -0.351860         1.719071
 H         4.150790        -0.434597         2.109926
 H         3.371466         2.974903         1.111045
 H         4.491753         2.559300        -0.230732
 H         1.603147         1.414137        -2.130687
 H         3.518976        -0.432731        -1.361528
