19
Iteration:  4731charge 0 multiplicity 1
 C         0.035961        -0.483717        -0.662189
 C         1.418270         0.150575        -0.395441
 C         1.811450         0.581808         1.096290
 C         3.315692         0.859264         0.685759
 O         4.410782         0.246129         1.566097
 C         3.594432         2.312943         0.304194
 O         2.406557         2.566045        -0.575771
 C         2.118997         1.305936        -1.153107
 C         2.904428         0.109319        -0.644968
 H         0.060944        -1.420780        -0.143154
 H        -0.704833         0.289464        -0.184058
 H        -0.260819        -0.592950        -1.743094
 H         1.222734         1.375726         1.536328
 H         1.757767        -0.264703         1.905260
 H         4.089018        -0.693938         1.713599
 H         3.578265         2.955665         1.171879
 H         4.506570         2.352224        -0.333640
 H         1.957767         1.395544        -2.274477
 H         3.704888        -0.338666        -1.317689
