19
Iteration:  4453
 C         0.184816        -0.456429        -0.738038
 C         1.485876         0.268855        -0.285031
 C         1.831899         0.594307         1.239929
 C         3.290768         0.760879         0.666392
 O         4.426943         0.374365         1.556991
 C         3.547044         2.190739         0.340383
 O         2.456569         2.445193        -0.589181
 C         2.007604         1.295766        -1.207011
 C         2.823376         0.220393        -0.758728
 H         0.140871        -1.571892        -0.305459
 H        -0.735485         0.010509        -0.324225
 H         0.013448        -0.496380        -1.876540
 H         1.082291         1.462971         1.419734
 H         1.619880        -0.282004         1.909524
 H         4.248379        -0.493545         1.941490
 H         3.334610         2.843962         1.219012
 H         4.551721         2.352978        -0.072400
 H         1.659941         1.285763        -2.212559
 H         3.278058        -0.629348        -1.336226
