19
Iteration:  4439charge 0 multiplicity 1
 C         0.176540        -0.498951        -0.809360
 C         1.290493         0.248895        -0.254939
 C         1.783803         0.682990         1.132398
 C         3.348916         0.745855         0.698539
 O         4.444294         0.412147         1.522939
 C         3.567247         2.174099         0.298285
 O         2.445865         2.510615        -0.497347
 C         1.997936         1.253716        -1.126936
 C         2.902931         0.069803        -0.730146
 H         0.206537        -1.635590        -0.629162
 H        -0.690890        -0.121338        -0.338680
 H         0.162466        -0.340834        -1.956158
 H         1.569986         1.642579         1.673025
 H         1.732574        -0.110422         1.863776
 H         4.173336        -0.336868         2.072772
 H         3.593913         2.830339         1.191704
 H         4.539116         2.316508        -0.269813
 H         1.623267         1.497341        -2.114563
 H         3.411437        -0.536245        -1.451303
