19
Iteration:  4662
 C         0.195772        -0.509658        -0.739225
 C         1.319061         0.324028        -0.165474
 C         1.863763         0.492779         1.243721
 C         3.274584         0.846689         0.697672
 O         4.309551         0.253013         1.410357
 C         3.483328         2.342589         0.449136
 O         2.630010         2.555412        -0.805502
 C         2.066981         1.304543        -1.123356
 C         2.820293         0.098303        -0.659221
 H         0.130023        -1.447642        -0.040836
 H        -0.784234         0.013810        -0.675203
 H         0.383375        -0.819878        -1.745530
 H         1.407725         1.189754         1.997017
 H         2.055221        -0.431853         1.841406
 H         4.113391        -0.728579         1.532491
 H         2.993142         3.028686         1.159717
 H         4.537065         2.595785         0.143941
 H         1.687053         1.320158        -2.120142
 H         3.540112        -0.355576        -1.276136
