19
Iteration:  4033charge 0 multiplicity 1
 C         0.191335        -0.539903        -0.745372
 C         1.298149         0.388430        -0.130524
 C         1.853944         0.484565         1.243295
 C         3.321287         0.847664         0.757284
 O         4.420589         0.229179         1.460421
 C         3.445894         2.333605         0.290221
 O         2.589348         2.542514        -0.828889
 C         2.042440         1.306012        -1.133731
 C         2.784901         0.163125        -0.568505
 H         0.219264        -1.529389        -0.230165
 H        -0.827535        -0.125816        -0.781031
 H         0.361148        -0.564481        -1.827416
 H         1.401330         1.231486         1.930491
 H         1.730826        -0.504467         1.600751
 H         4.152524        -0.630884         1.754773
 H         3.371616         2.946078         1.224452
 H         4.547285         2.555592        -0.010250
 H         1.853650         1.231241        -2.238492
 H         3.158436        -0.665266        -1.142009
