19
Iteration:  1728charge 0 multiplicity 1
 C         0.204668        -0.467110        -0.591248
 C         1.388367         0.273620        -0.167549
 C         1.834309         0.653906         1.271412
 C         3.231325         0.888492         0.728895
 O         4.314977         0.138916         1.248474
 C         3.481922         2.340425         0.327517
 O         2.555241         2.494438        -0.774609
 C         2.131572         1.230086        -1.180341
 C         2.828997         0.102866        -0.573017
 H         0.063865        -1.492891        -0.120633
 H        -0.708118         0.172641        -0.342941
 H        -0.032422        -0.575745        -1.755501
 H         1.377873         1.501475         1.806408
 H         1.863054        -0.325109         1.848205
 H         4.536999         0.566899         2.070671
 H         3.338307         3.071587         1.135402
 H         4.577913         2.473650        -0.027462
 H         1.714756         1.110797        -2.198801
 H         3.509295        -0.825511        -0.858915
