19
Iteration:   436
 C         0.007363        -0.325065        -0.204419
 C         1.320432         0.436947        -0.099323
 C         1.941445         0.849650         1.243519
 C         3.308149         0.813984         0.661917
 O         4.323084         0.256519         1.409139
 C         3.604299         2.144888         0.094613
 O         2.713725         2.372495        -1.065420
 C         2.063551         1.152829        -1.234055
 C         2.723095        -0.011011        -0.523125
 H        -0.014740        -1.140301         0.505456
 H        -0.749959         0.364670        -0.071165
 H        -0.213044        -0.646781        -1.198073
 H         1.686077         1.794360         1.769228
 H         1.782068         0.027758         1.991877
 H         4.006793        -0.593471         1.715895
 H         3.398186         2.917830         0.842537
 H         4.659158         2.447107        -0.195531
 H         1.578559         1.003535        -2.160331
 H         3.046825        -0.903924        -1.048741
