19
Iteration:  2218charge 0 multiplicity 1
 C         0.146563        -0.579125        -0.514589
 C         1.340115         0.253530        -0.193492
 C         1.907186         0.588972         1.226108
 C         3.251483         0.843728         0.651995
 O         4.342595         0.280443         1.443436
 C         3.585885         2.264492         0.299799
 O         2.542667         2.557372        -0.701064
 C         2.013825         1.329298        -1.182017
 C         2.812309         0.154469        -0.727259
 H        -0.027160        -1.495498         0.106639
 H        -0.711669         0.143645        -0.444079
 H         0.184609        -0.938875        -1.512422
 H         1.412446         1.451068         1.753635
 H         1.946675        -0.319133         1.799709
 H         4.511363        -0.699961         1.330380
 H         3.576486         3.063484         1.046861
 H         4.625078         2.405325        -0.164453
 H         1.607504         1.362515        -2.168661
 H         3.399279        -0.551209        -1.413207
