19
Iteration:    15
 C        -0.150545        -0.349062        -0.085935
 C         1.166751         0.548513        -0.067852
 C         1.977252         0.944037         1.203565
 C         3.358231         0.833448         0.548857
 O         4.230024         0.210838         1.401711
 C         3.800897         2.139885        -0.046796
 O         2.813660         2.339956        -1.073974
 C         2.044204         1.072448        -1.174907
 C         2.650989        -0.076247        -0.414792
 H        -0.082353        -1.030859         0.727011
 H        -1.050666         0.314391        -0.097595
 H        -0.280409        -0.988506        -0.956580
 H         1.711042         1.645952         1.891580
 H         2.079012         0.021052         1.715767
 H         4.895140         0.919198         1.668445
 H         3.657511         2.866163         0.823980
 H         4.832993         2.253800        -0.370536
 H         1.770729         0.886513        -2.338986
 H         2.974361        -0.980631        -0.932469
