19
Iteration:  4461charge 0 multiplicity 1
 C         0.181590        -0.442727        -0.643637
 C         1.434602         0.212829        -0.295776
 C         1.829647         0.528720         1.208565
 C         3.301180         0.742397         0.729295
 O         4.358439         0.342763         1.518677
 C         3.495276         2.236571         0.361387
 O         2.457648         2.534340        -0.676245
 C         2.079798         1.344143        -1.210778
 C         2.884004         0.160655        -0.736920
 H         0.125530        -1.507119        -0.250126
 H        -0.650920         0.094284        -0.286870
 H         0.262203        -0.602346        -1.760664
 H         1.331415         1.426073         1.693488
 H         1.662546        -0.386092         1.753907
 H         4.228290        -0.604258         1.756111
 H         3.313399         2.993702         1.145046
 H         4.501249         2.423290        -0.104583
 H         1.678971         1.483358        -2.196560
 H         3.397662        -0.655965        -1.235177
