19
Iteration:  1890
 C         0.190274        -0.685798        -0.526945
 C         1.306052         0.385486        -0.181405
 C         1.781333         0.534977         1.293468
 C         3.177164         0.801246         0.646831
 O         4.374430         0.298401         1.345567
 C         3.563167         2.191350         0.307790
 O         2.696755         2.597632        -0.864864
 C         2.044795         1.375200        -1.141509
 C         2.742232         0.235664        -0.601366
 H         0.368358        -1.469564         0.139517
 H        -0.712675        -0.111797        -0.371490
 H         0.267771        -1.064054        -1.527104
 H         1.392094         1.261325         2.063817
 H         2.088616        -0.409289         1.730403
 H         4.101382        -0.371787         2.002734
 H         3.647570         2.959210         1.087923
 H         4.594535         2.168137        -0.058151
 H         1.692653         1.290629        -2.151334
 H         3.140086        -0.550149        -1.244344
