19
Iteration:  2759charge 0 multiplicity 1
 C         0.176499        -0.542475        -0.629488
 C         1.263424         0.349017        -0.067304
 C         1.875575         0.553691         1.317136
 C         3.265952         0.792329         0.690279
 O         4.455253         0.309029         1.456730
 C         3.467351         2.255832         0.285759
 O         2.772118         2.500101        -0.921066
 C         1.882341         1.423853        -1.151499
 C         2.718984         0.134903        -0.667227
 H         0.159187        -1.445619         0.077939
 H        -0.855150        -0.266217        -0.761592
 H         0.518588        -0.998789        -1.611632
 H         1.469726         1.329512         2.082908
 H         1.805995        -0.481824         1.654171
 H         4.394029        -0.589259         1.763113
 H         3.182668         2.971588         1.037020
 H         4.631443         2.331202         0.036676
 H         1.428539         1.464202        -2.121615
 H         3.211848        -0.770166        -1.128541
