19
Iteration:   900
 C         0.228991        -0.453439        -0.262448
 C         1.308628         0.463107        -0.116553
 C         1.771350         0.702270         1.269856
 C         3.207849         0.799800         0.653978
 O         4.213214         0.190780         1.409391
 C         3.620668         2.170513         0.126084
 O         2.769036         2.459142        -0.928064
 C         2.027637         1.273480        -1.212045
 C         2.763057         0.068431        -0.678358
 H         0.365868        -1.400243         0.230983
 H        -0.774962        -0.027355        -0.047691
 H         0.203263        -0.929324        -1.250987
 H         1.443372         1.629694         1.624650
 H         1.839722        -0.195816         1.812009
 H         4.819508         0.850718         1.720104
 H         3.439788         2.672351         1.112707
 H         4.682615         2.366026        -0.051098
 H         1.492357         1.297459        -2.224961
 H         3.012923        -0.871053        -1.068803
