19
Iteration:  4078
 C         0.145648        -0.539972        -0.510189
 C         1.358024         0.272734        -0.326867
 C         1.736684         0.588505         1.170258
 C         3.219290         0.788219         0.737579
 O         4.406013         0.311340         1.325361
 C         3.387191         2.285415         0.448330
 O         2.718404         2.535966        -0.733689
 C         2.136554         1.304204        -1.203837
 C         2.846246         0.127155        -0.639125
 H         0.376888        -1.490522         0.043272
 H        -0.706953        -0.059536        -0.151707
 H        -0.069733        -0.685041        -1.585063
 H         1.203999         1.400207         1.708715
 H         1.782617        -0.249974         1.778617
 H         4.386204        -0.657913         1.241444
 H         2.792788         2.933033         1.110698
 H         4.454806         2.568978         0.658001
 H         1.782454         1.457534        -2.223327
 H         3.438954        -0.599256        -1.231671
