19
Iteration:  2688
 C         0.059371        -0.353619        -0.472183
 C         1.433168         0.204415        -0.312904
 C         1.870089         0.717645         1.125385
 C         3.378588         0.821096         0.618835
 O         4.356031         0.301694         1.530582
 C         3.551903         2.268753         0.187097
 O         2.337654         2.443053        -0.563501
 C         2.127638         1.218842        -1.166738
 C         2.987721         0.013463        -0.711653
 H        -0.116654        -1.399966        -0.210930
 H        -0.845516         0.323203        -0.035498
 H        -0.161411        -0.290050        -1.544392
 H         1.298628         1.590704         1.294235
 H         1.716372        -0.132422         1.808220
 H         4.245657        -0.598337         1.834760
 H         3.536748         2.989632         1.076825
 H         4.398764         2.469655        -0.517342
 H         1.743010         1.306053        -2.200437
 H         3.566094        -0.779608        -1.250001
