19
Iteration:  3603
 C         0.221483        -0.549367        -0.530768
 C         1.405679         0.352991        -0.246118
 C         1.791528         0.590178         1.169673
 C         3.254934         0.775822         0.686662
 O         4.283910         0.301592         1.398701
 C         3.423603         2.251460         0.418863
 O         2.560329         2.542965        -0.652631
 C         2.168628         1.325844        -1.246334
 C         2.853595         0.107881        -0.765799
 H         0.419832        -1.350402         0.127280
 H        -0.691729        -0.061884        -0.041558
 H         0.137063        -0.980878        -1.537261
 H         1.378721         1.546126         1.651023
 H         1.735486        -0.278236         1.862837
 H         4.483213        -0.640123         1.371293
 H         3.080925         2.735140         1.317337
 H         4.457346         2.517172         0.067436
 H         1.901355         1.334114        -2.286424
 H         3.533744        -0.500082        -1.370116
