19
Iteration:  3524
 C         0.175180        -0.573534        -0.789414
 C         1.319995         0.342242        -0.227032
 C         1.795397         0.538151         1.237611
 C         3.369629         0.732729         0.724655
 O         4.492726         0.270193         1.435273
 C         3.544724         2.311661         0.311880
 O         2.472931         2.524009        -0.615738
 C         1.982068         1.332081        -1.174426
 C         2.775563         0.151694        -0.640208
 H         0.229110        -1.567886        -0.344728
 H        -0.815055        -0.126572        -0.549340
 H         0.271413        -0.713301        -1.938892
 H         1.510437         1.433235         1.861644
 H         1.604530        -0.402424         1.873021
 H         4.461044         0.381729         2.395977
 H         3.481169         3.158757         0.934227
 H         4.670641         2.410258        -0.124114
 H         1.737789         1.339148        -2.261308
 H         3.227125        -0.556911        -1.337007
