19
Iteration:  3989
 C         0.154718        -0.446561        -0.588025
 C         1.457345         0.162722        -0.343968
 C         1.806150         0.690782         1.042976
 C         3.288954         0.695145         0.659959
 O         4.369117         0.340518         1.542057
 C         3.566336         2.157058         0.332069
 O         2.351188         2.512054        -0.510057
 C         2.090261         1.296564        -1.171563
 C         2.983797         0.129744        -0.740150
 H        -0.088925        -1.387333        -0.008898
 H        -0.638617         0.305590        -0.349639
 H         0.003654        -0.600531        -1.667373
 H         1.375034         1.699349         1.202458
 H         1.637556         0.064309         1.871305
 H         3.898436        -0.145374         2.206129
 H         3.618568         3.065470         0.952684
 H         4.464385         2.405984        -0.384553
 H         1.845066         1.244361        -2.257571
 H         3.569890        -0.440033        -1.427510
