19
Iteration:  3823
 C         0.178780        -0.459893        -0.592637
 C         1.421265         0.278055        -0.351036
 C         1.817957         0.624935         1.076291
 C         3.358327         0.764055         0.671001
 O         4.337034         0.335085         1.623649
 C         3.511270         2.243260         0.286258
 O         2.461572         2.511541        -0.612039
 C         2.059501         1.278839        -1.197716
 C         2.896434         0.095736        -0.727298
 H         0.155422        -1.327705         0.054385
 H        -0.799159         0.191046        -0.517699
 H         0.107309        -0.771592        -1.636616
 H         1.443362         1.395505         1.807489
 H         1.921769        -0.344267         1.579208
 H         4.053740        -0.476737         2.093182
 H         3.481824         2.787993         1.205874
 H         4.432388         2.564275        -0.262974
 H         1.606693         1.342259        -2.177726
 H         3.278381        -0.717285        -1.369443
