19
Iteration:  3127charge 0 multiplicity 1
 C         0.068350        -0.374717        -0.707948
 C         1.398175         0.133930        -0.188757
 C         1.867232         0.649469         1.223452
 C         3.352279         0.824218         0.697070
 O         4.370791         0.284670         1.535155
 C         3.535836         2.243638         0.166703
 O         2.398299         2.495449        -0.596928
 C         2.012056         1.256960        -1.145176
 C         2.933412         0.124904        -0.639294
 H        -0.097219        -1.398034        -0.348544
 H        -0.735040         0.306222        -0.605833
 H         0.014333        -0.535610        -1.767875
 H         1.331198         1.437715         1.640213
 H         2.020745        -0.050301         2.050119
 H         5.121660        -0.205697         1.070229
 H         3.848920         2.991294         0.928837
 H         4.405815         2.191847        -0.450687
 H         1.668291         1.100374        -2.150345
 H         3.479463        -0.536822        -1.299602
