19
Iteration:  3691
 C         0.108550        -0.478340        -0.650086
 C         1.407610         0.195982        -0.348291
 C         1.815747         0.645563         1.130420
 C         3.360065         0.748370         0.757110
 O         4.377901         0.340856         1.497660
 C         3.519949         2.221986         0.260553
 O         2.402064         2.588214        -0.518234
 C         2.097844         1.226002        -1.183423
 C         2.948608         0.112493        -0.734569
 H        -0.121992        -1.406999        -0.203020
 H        -0.681604         0.283096        -0.253797
 H        -0.027575        -0.725415        -1.711458
 H         1.253343         1.545861         1.651184
 H         1.619974        -0.261694         1.787671
 H         4.184010        -0.358094         2.145370
 H         3.587207         3.040349         0.939811
 H         4.398589         2.179246        -0.381819
 H         1.925520         1.372975        -2.270134
 H         3.663310        -0.512153        -1.213855
