19
Iteration:  2146charge 0 multiplicity 1
 C         0.133001        -0.439768        -0.638590
 C         1.336816         0.240752        -0.157809
 C         1.908113         0.593537         1.248901
 C         3.284958         0.826317         0.615566
 O         4.371465         0.322707         1.350023
 C         3.544714         2.307463         0.301261
 O         2.517618         2.505541        -0.662967
 C         2.026172         1.245744        -1.115915
 C         2.810183         0.059879        -0.671676
 H         0.215629        -1.509092        -0.518677
 H        -0.723193        -0.083651        -0.112186
 H        -0.004668        -0.519002        -1.805638
 H         1.603656         1.444428         1.873832
 H         1.955444        -0.394408         1.828477
 H         4.357818        -0.170690         2.192647
 H         3.721024         3.172523         0.929753
 H         4.495013         2.250714        -0.171624
 H         1.631834         1.360657        -2.100397
 H         3.371166        -0.722748        -1.156253
