19
Iteration:   175
 C        -0.009953        -0.264962        -0.075892
 C         1.359930         0.397311        -0.072635
 C         1.858080         0.924179         1.286311
 C         3.266413         0.814744         0.667896
 O         4.264050         0.152853         1.417607
 C         3.621321         2.195275         0.037359
 O         2.795724         2.333928        -1.158292
 C         2.083841         1.113410        -1.242463
 C         2.733829         0.047285        -0.524136
 H        -0.055063        -1.023577         0.750568
 H        -0.794619         0.527272        -0.005592
 H        -0.284229        -0.864938        -0.976126
 H         1.565159         1.990958         1.576330
 H         1.652266         0.108691         2.005327
 H         4.629611        -0.571706         0.844162
 H         3.362832         2.989968         0.740719
 H         4.730987         2.360206        -0.175551
 H         1.536383         1.006314        -2.246382
 H         3.125960        -0.961044        -0.658751
