19
Iteration:  1436
 C         0.182677        -0.499411        -0.506769
 C         1.278079         0.356473        -0.214778
 C         1.858735         0.567264         1.150134
 C         3.322460         0.762243         0.635110
 O         4.244745         0.290356         1.556369
 C         3.501341         2.258266         0.297257
 O         2.661115         2.578355        -0.782210
 C         2.072171         1.297044        -1.144562
 C         2.798728         0.051061        -0.715265
 H         0.230319        -1.536752        -0.083774
 H        -0.703390        -0.164177         0.029146
 H         0.067583        -0.640345        -1.611936
 H         1.390450         1.338229         1.741211
 H         1.844769        -0.352019         1.654453
 H         5.056383         0.183534         1.074634
 H         3.346619         2.765117         1.251944
 H         4.525279         2.455578         0.035990
 H         1.720072         1.399770        -2.187119
 H         3.234020        -0.774130        -1.366681
