19
Iteration:  1409charge 0 multiplicity 1
 C         0.086850        -0.401197        -0.571406
 C         1.372241         0.212288        -0.244086
 C         1.807818         0.665596         1.170360
 C         3.342857         0.843583         0.762275
 O         4.318220         0.180830         1.471920
 C         3.554276         2.213687         0.238232
 O         2.407608         2.475273        -0.640165
 C         2.143842         1.178571        -1.239031
 C         2.948740         0.179183        -0.682022
 H        -0.144453        -1.428884        -0.282435
 H        -0.611465         0.293524         0.005753
 H        -0.180557        -0.261511        -1.626685
 H         1.200856         1.610187         1.547371
 H         1.697150        -0.120083         2.069333
 H         5.056329         0.782145         1.529948
 H         3.677359         3.016728         1.002803
 H         4.482034         2.181631        -0.429058
 H         1.863758         1.337903        -2.284479
 H         3.639944        -0.538991        -1.112862
