19
Iteration:  3024
 C         0.201330        -0.528532        -0.665203
 C         1.385680         0.333953        -0.148679
 C         1.840606         0.689929         1.360457
 C         3.267034         0.907741         0.668061
 O         4.341063         0.136171         1.317857
 C         3.526807         2.349484         0.286396
 O         2.551357         2.549861        -0.774594
 C         2.037977         1.215532        -1.131310
 C         2.828203         0.080629        -0.620899
 H         0.348623        -1.547101        -0.262623
 H        -0.767334        -0.410409        -0.234522
 H         0.218838        -0.499137        -1.757535
 H         1.360756         1.584771         1.820154
 H         1.675915        -0.178954         1.946559
 H         4.090114        -0.174772         2.170901
 H         3.344382         3.083920         1.041619
 H         4.534648         2.280010        -0.091512
 H         1.892216         1.058202        -2.205300
 H         3.352097        -0.670088        -1.176341
