19
Iteration:  4162
 C         0.140407        -0.582137        -0.795638
 C         1.308178         0.288575        -0.340899
 C         1.775305         0.638722         1.182760
 C         3.416195         0.794341         0.715004
 O         4.491705         0.354692         1.477444
 C         3.651113         2.184555         0.270908
 O         2.386921         2.555523        -0.541993
 C         2.010203         1.315890        -1.121800
 C         2.816341         0.140674        -0.575640
 H         0.015777        -1.491305        -0.225481
 H        -0.855380         0.059077        -0.647536
 H         0.229501        -0.965291        -1.817558
 H         1.422036         1.490283         1.793094
 H         1.417564        -0.384438         1.681267
 H         4.204488        -0.500345         1.843716
 H         3.579127         2.937158         1.036443
 H         4.642457         2.142781        -0.228344
 H         1.906651         1.418556        -2.223067
 H         3.348254        -0.543657        -1.251684
