19
Iteration:  1810
 C         0.023740        -0.366675        -0.491765
 C         1.461036         0.203335        -0.328208
 C         1.781595         0.539157         1.154700
 C         3.345446         0.811145         0.728643
 O         4.408546         0.325166         1.531936
 C         3.583098         2.277336         0.206940
 O         2.486052         2.517656        -0.735500
 C         2.013006         1.251555        -1.166653
 C         2.916464         0.118792        -0.634474
 H        -0.136775        -1.324313         0.096235
 H        -0.641887         0.344842         0.051582
 H        -0.135755        -0.659256        -1.534847
 H         1.214925         1.390922         1.581464
 H         1.735996        -0.355834         1.761626
 H         4.460650        -0.612250         1.367373
 H         3.366774         2.924440         1.098206
 H         4.460566         2.256567        -0.427225
 H         1.806676         1.259356        -2.250491
 H         3.446609        -0.635678        -1.178996
