19
Iteration:  1980
 C         0.094463        -0.369127        -0.642565
 C         1.336665         0.241481        -0.216805
 C         1.882973         0.586592         1.232636
 C         3.321078         0.713974         0.690385
 O         4.441810         0.441470         1.474687
 C         3.603586         2.172891         0.147730
 O         2.385774         2.502742        -0.623204
 C         2.015031         1.271501        -1.113740
 C         2.838868         0.079736        -0.628394
 H         0.135609        -1.414855        -0.496065
 H        -0.816084         0.082583        -0.259012
 H         0.175322        -0.430048        -1.775653
 H         1.331439         1.388987         1.779759
 H         2.027675        -0.338048         1.861609
 H         4.404561        -0.549260         1.727282
 H         3.952063         2.947246         0.891943
 H         4.492380         2.188312        -0.603474
 H         1.806083         1.296736        -2.227725
 H         3.510480        -0.552660        -1.208313
