19
Iteration:   139
 C        -0.049271        -0.274805        -0.203477
 C         1.293415         0.492175        -0.045153
 C         1.958194         0.834437         1.255718
 C         3.334634         0.764184         0.586261
 O         4.251747         0.237649         1.544582
 C         3.773974         2.076436        -0.105428
 O         2.730065         2.358253        -1.056475
 C         1.973322         1.171875        -1.205617
 C         2.668680        -0.037319        -0.519909
 H        -0.025583        -1.292435         0.325265
 H        -0.890458         0.253951         0.296126
 H        -0.290932        -0.379497        -1.299717
 H         1.681873         1.723481         1.817523
 H         1.941163         0.056175         2.012295
 H         4.911197         0.946505         1.779141
 H         3.729113         2.914096         0.617334
 H         4.779225         1.972902        -0.608535
 H         1.464833         1.047701        -2.091763
 H         2.935839        -1.026560        -0.882475
