19
Iteration:   826charge 0 multiplicity 1
 C        -0.020254        -0.256404        -0.460277
 C         1.387463         0.252861        -0.112846
 C         1.900989         0.809029         1.248229
 C         3.349604         0.769226         0.636573
 O         4.328120         0.344963         1.547854
 C         3.648109         2.170071         0.032526
 O         2.452953         2.392094        -0.724889
 C         2.103380         1.116215        -1.240918
 C         2.836483        -0.021367        -0.601368
 H        -0.466419        -1.194983        -0.072814
 H        -0.783997         0.607552        -0.234794
 H        -0.074312        -0.373298        -1.544690
 H         1.553340         1.856626         1.594382
 H         1.763274        -0.028668         1.998488
 H         5.142419        -0.011076         1.067159
 H         3.700120         2.983654         0.789046
 H         4.586277         2.036276        -0.572336
 H         1.627029         1.183255        -2.279281
 H         3.362270        -0.851117        -0.991445
