19
Iteration:  4602charge 0 multiplicity 1
 C         0.187519        -0.611314        -0.630600
 C         1.375147         0.299901        -0.300918
 C         1.856843         0.699122         1.111807
 C         3.362164         0.789562         0.645622
 O         4.281908         0.270385         1.538969
 C         3.613401         2.250200         0.390457
 O         2.432771         2.495496        -0.569846
 C         2.090223         1.311412        -1.260671
 C         2.842184         0.181157        -0.749739
 H         0.241263        -1.640742        -0.371861
 H        -0.612724        -0.165454        -0.013157
 H        -0.106373        -0.520474        -1.726448
 H         1.459541         1.625054         1.639723
 H         1.835295        -0.159159         1.775627
 H         4.083608        -0.677367         1.728360
 H         3.485988         2.920793         1.248927
 H         4.615275         2.514454         0.002124
 H         1.646648         1.654872        -2.213201
 H         3.365059        -0.759452        -1.109697
