19
Iteration:  3516charge 0 multiplicity 1
 C         0.179496        -0.619441        -0.741021
 C         1.299302         0.367676        -0.193863
 C         1.799291         0.561105         1.219911
 C         3.342126         0.770697         0.739051
 O         4.514894         0.203580         1.407935
 C         3.522209         2.286793         0.363709
 O         2.501280         2.548963        -0.677476
 C         2.020816         1.307104        -1.164828
 C         2.818183         0.203385        -0.657619
 H         0.051526        -1.525940        -0.255318
 H        -0.948087        -0.256500        -0.797095
 H         0.179949        -0.714749        -1.838739
 H         1.343618         1.395089         1.789932
 H         1.621058        -0.370219         1.704579
 H         4.391469         0.533689         2.345419
 H         3.343303         3.002327         1.259766
 H         4.408228         2.726296        -0.210889
 H         1.781988         1.349165        -2.207675
 H         3.178453        -0.625853        -1.323606
