19
Iteration:  1461
 C         0.232826        -0.579703        -0.555284
 C         1.275430         0.353200        -0.220698
 C         1.858650         0.583361         1.343905
 C         3.277466         0.731584         0.760613
 O         4.298126         0.206500         1.548082
 C         3.425771         2.287563         0.295346
 O         2.770533         2.539552        -0.928394
 C         1.959446         1.436070        -1.252504
 C         2.777109         0.203276        -0.703661
 H         0.289251        -1.482441         0.125098
 H        -0.813339        -0.324924        -0.165961
 H         0.382108        -0.964209        -1.511423
 H         1.637250         1.214808         2.186301
 H         1.868481        -0.463603         1.593739
 H         4.831921        -0.358059         0.942589
 H         3.129575         3.011622         1.116170
 H         4.509159         2.500878         0.098866
 H         1.567791         1.598827        -2.223390
 H         3.198254        -0.761358        -1.157244
