19
Iteration:  3140charge 0 multiplicity 1
 C         0.139778        -0.433973        -0.741744
 C         1.391345         0.284421        -0.197867
 C         1.898467         0.655218         1.257226
 C         3.330644         0.845041         0.699735
 O         4.386665         0.296556         1.483984
 C         3.588512         2.277773         0.191044
 O         2.382492         2.484651        -0.613380
 C         2.047260         1.163449        -1.093300
 C         2.838731         0.048097        -0.613349
 H        -0.137286        -1.335021        -0.339298
 H        -0.675625         0.194755        -0.352455
 H         0.258868        -0.408663        -1.856549
 H         1.521298         1.564007         1.678761
 H         1.732310        -0.272062         1.858883
 H         4.547623        -0.491252         0.960093
 H         3.394633         3.057061         0.966048
 H         4.481741         2.411154        -0.371505
 H         1.838060         1.310949        -2.160725
 H         3.292390        -0.528206        -1.383648
