19
Iteration:   404
 C        -0.037193        -0.197096        -0.344934
 C         1.332227         0.305446        -0.061139
 C         1.858806         0.929693         1.238719
 C         3.345380         0.820133         0.687808
 O         4.368323         0.199847         1.498584
 C         3.704634         2.154769        -0.082415
 O         2.521142         2.398636        -0.880411
 C         2.074495         1.067903        -1.148571
 C         2.832791        -0.051088        -0.512431
 H        -0.422709        -0.934899         0.362067
 H        -0.712446         0.588451        -0.221491
 H        -0.090917        -0.701614        -1.294535
 H         1.442068         1.923145         1.235142
 H         1.663476         0.270690         2.067449
 H         4.963871        -0.335104         0.917791
 H         3.684448         2.942884         0.641198
 H         4.555647         2.140711        -0.774382
 H         1.540232         1.086884        -2.043886
 H         3.193447        -0.838883        -1.163217
