19
Iteration:  3941
 C         0.275315        -0.520810        -0.621918
 C         1.391186         0.290121        -0.202820
 C         1.771083         0.530921         1.300147
 C         3.227752         0.798906         0.700586
 O         4.262366         0.288125         1.427746
 C         3.478527         2.237321         0.326350
 O         2.635260         2.618730        -0.818657
 C         2.036465         1.265248        -1.182538
 C         2.914865         0.190778        -0.624881
 H         0.353950        -1.440828        -0.081891
 H        -0.730789        -0.085379        -0.339032
 H         0.236132        -0.738712        -1.695678
 H         1.255302         1.293932         1.844600
 H         1.686999        -0.470851         1.808945
 H         4.019850        -0.672669         1.536846
 H         3.428586         2.893567         1.193565
 H         4.562154         2.315780         0.003272
 H         1.534054         1.414691        -2.118948
 H         3.531325        -0.434785        -1.302911
