19
Iteration:  3310
 C         0.129386        -0.542215        -0.624276
 C         1.427759         0.329634        -0.190839
 C         1.878478         0.483996         1.236896
 C         3.289962         0.788236         0.648462
 O         4.300630         0.189006         1.417452
 C         3.498007         2.293341         0.342263
 O         2.484398         2.591570        -0.723652
 C         2.065177         1.326655        -1.167728
 C         2.926704         0.166486        -0.709817
 H         0.095501        -1.397413         0.057625
 H        -0.814485        -0.014389        -0.582216
 H         0.138592        -0.860851        -1.625115
 H         1.482599         1.217208         2.010372
 H         1.823318        -0.477751         1.715539
 H         4.559216         0.849157         2.050594
 H         3.482960         2.869717         1.193301
 H         4.519056         2.473536         0.025775
 H         1.612111         1.432208        -2.179035
 H         3.332762        -0.651477        -1.256563
