19
Iteration:  2209
 C         0.168970        -0.555875        -0.406568
 C         1.362483         0.278979        -0.195857
 C         1.844172         0.581450         1.147857
 C         3.276698         0.811462         0.586721
 O         4.306904         0.260068         1.411072
 C         3.532607         2.333965         0.324700
 O         2.575316         2.568740        -0.704250
 C         2.048822         1.307356        -1.189084
 C         2.836720         0.160693        -0.714307
 H         0.052948        -1.402570         0.294626
 H        -0.724149         0.102785        -0.328009
 H         0.328611        -0.919817        -1.483711
 H         1.304685         1.147257         1.909413
 H         2.038175        -0.311871         1.738885
 H         4.307041        -0.731311         1.204831
 H         3.289203         2.891335         1.286567
 H         4.579405         2.427153        -0.166414
 H         1.899893         1.301086        -2.241844
 H         3.340892        -0.686441        -1.231217
