19
Iteration:  4332
 C         0.228541        -0.548596        -0.615618
 C         1.463783         0.267317        -0.229677
 C         1.716865         0.565399         1.165252
 C         3.232172         0.704184         0.735430
 O         4.361872         0.283881         1.358026
 C         3.484710         2.220454         0.390864
 O         2.516179         2.630809        -0.673701
 C         2.077324         1.371267        -1.203978
 C         2.914624         0.138401        -0.638246
 H         0.071609        -1.264608         0.243193
 H        -0.582351         0.116024        -0.592395
 H         0.133731        -1.037383        -1.603025
 H         1.187908         1.337273         1.810298
 H         1.622764        -0.398713         1.643473
 H         4.316528        -0.614584         1.621803
 H         3.222235         2.940003         1.188622
 H         4.458767         2.478729         0.008824
 H         1.862316         1.565869        -2.278859
 H         3.622806        -0.289734        -1.304262
