19
Iteration:  1602
 C         0.228648        -0.501351        -0.575849
 C         1.384763         0.349247        -0.145832
 C         1.846739         0.726872         1.276691
 C         3.233542         0.787927         0.664323
 O         4.281676         0.188798         1.347119
 C         3.368333         2.294461         0.422748
 O         2.647549         2.522910        -0.785970
 C         2.123833         1.169224        -1.265298
 C         2.822470         0.119586        -0.616137
 H         0.262795        -1.585561        -0.250093
 H        -0.752846        -0.057144        -0.149415
 H         0.167458        -0.501731        -1.647503
 H         1.528297         1.725526         1.740410
 H         1.841495        -0.197784         1.876010
 H         5.075685         0.044384         0.746851
 H         2.869436         2.745719         1.350695
 H         4.424934         2.630274         0.390003
 H         1.698397         1.380099        -2.277101
 H         3.295440        -0.840290        -0.953238
