19
Iteration:  4636
 C         0.255455        -0.581435        -0.557658
 C         1.408703         0.316442        -0.247924
 C         1.648681         0.552733         1.172805
 C         3.178314         0.774380         0.748161
 O         4.361625         0.229332         1.308312
 C         3.474407         2.235090         0.502533
 O         2.608212         2.635260        -0.789823
 C         2.158047         1.365058        -1.222786
 C         2.887174         0.187727        -0.638276
 H         0.359683        -1.476034         0.066769
 H        -0.574493        -0.019052        -0.204822
 H        -0.012299        -0.834610        -1.624258
 H         1.348176         1.426348         1.795733
 H         1.457923        -0.318168         1.755256
 H         4.258155        -0.729978         1.593105
 H         3.100873         2.956620         1.258875
 H         4.506216         2.371514         0.154774
 H         1.672200         1.282052        -2.247491
 H         3.620778        -0.598397        -0.999011
