19
Iteration:  4220
 C         0.171509        -0.668098        -0.566944
 C         1.392506         0.261376        -0.192930
 C         1.824739         0.594590         1.139334
 C         3.349591         0.903890         0.671278
 O         4.324737         0.022876         1.517581
 C         3.398445         2.438016         0.402472
 O         2.641651         2.583563        -0.758283
 C         2.068193         1.400679        -1.210074
 C         2.849325         0.225428        -0.729409
 H         0.380026        -1.603329         0.074995
 H        -0.820835        -0.319432        -0.309230
 H         0.122994        -0.882447        -1.672795
 H         1.291256         1.454101         1.739316
 H         1.753031        -0.308199         1.774412
 H         4.123414        -0.837123         1.036264
 H         2.913001         3.059582         1.168916
 H         4.465656         2.736379         0.352855
 H         1.557218         1.609126        -2.128309
 H         3.487536        -0.395568        -1.412810
