19
Iteration:   272
 C        -0.033593        -0.270894        -0.245191
 C         1.351886         0.376737        -0.039446
 C         1.907333         0.930574         1.211505
 C         3.343737         0.744203         0.643383
 O         4.286216         0.243623         1.537449
 C         3.768542         2.072324        -0.065755
 O         2.655433         2.409683        -0.937649
 C         1.962104         1.129626        -1.200407
 C         2.675602        -0.058534        -0.593703
 H         0.011750        -1.250470         0.367451
 H        -0.879521         0.385053         0.123105
 H        -0.373965        -0.500422        -1.292517
 H         1.696177         1.936887         1.587149
 H         1.738137         0.276740         2.113760
 H         5.171588         0.648124         1.298598
 H         3.950762         2.873491         0.660623
 H         4.723542         1.977960        -0.637359
 H         1.481089         1.094431        -2.267908
 H         3.084179        -0.909957        -1.140910
