19
Iteration:  2559charge 0 multiplicity 1
 C         0.095117        -0.386898        -0.501257
 C         1.417073         0.267504        -0.295311
 C         1.910032         0.569509         1.134698
 C         3.343288         0.782395         0.625736
 O         4.268168         0.393916         1.478543
 C         3.607130         2.228536         0.192371
 O         2.383434         2.506129        -0.535629
 C         2.049215         1.263170        -1.195606
 C         2.966389         0.048017        -0.703693
 H         0.038474        -1.323745        -0.000369
 H        -0.715465         0.233185        -0.094090
 H        -0.016811        -0.733284        -1.497058
 H         1.593325         1.256201         2.020537
 H         1.790081        -0.329370         1.760408
 H         4.198988        -0.531887         1.703287
 H         3.669036         3.040307         0.968698
 H         4.373653         2.170665        -0.597248
 H         1.756172         1.329410        -2.210035
 H         3.603356        -0.687307        -1.285192
