19
Iteration:  2543
 C         0.138412        -0.373663        -0.575958
 C         1.424843         0.236185        -0.265045
 C         1.834334         0.521712         1.147399
 C         3.325543         0.798838         0.635595
 O         4.441312         0.464393         1.585679
 C         3.588585         2.122082         0.101129
 O         2.386207         2.513100        -0.517744
 C         2.035893         1.260794        -1.159766
 C         2.817327         0.084118        -0.713602
 H        -0.076908        -1.424578        -0.163785
 H        -0.629170         0.335876        -0.154643
 H        -0.169035        -0.416943        -1.687075
 H         1.261751         1.314529         1.534035
 H         1.935211        -0.437181         1.759236
 H         4.580827        -0.501173         1.846483
 H         3.814012         2.855501         0.881167
 H         4.516138         2.163563        -0.546230
 H         1.716275         1.369398        -2.247870
 H         3.210247        -0.608427        -1.397952
