19
Iteration:  2422charge 0 multiplicity 1
 C         0.188957        -0.557173        -0.536199
 C         1.400469         0.288118        -0.267761
 C         1.845506         0.606263         1.198625
 C         3.307134         0.741383         0.674047
 O         4.346196         0.339180         1.454545
 C         3.682000         2.134734         0.197855
 O         2.408229         2.570713        -0.571728
 C         1.978571         1.335907        -1.171152
 C         2.844619         0.167369        -0.690119
 H         0.096230        -1.422254         0.015446
 H        -0.667290         0.054399        -0.379612
 H         0.053993        -0.947533        -1.523476
 H         1.554505         1.516948         1.634373
 H         1.632283        -0.150638         1.939790
 H         4.259541        -0.586471         1.810345
 H         3.716186         3.030683         0.803866
 H         4.507489         2.225742        -0.571787
 H         1.764914         1.489450        -2.228161
 H         3.420824        -0.279565        -1.545756
