19
Iteration:   993charge 0 multiplicity 1
 C         0.039312        -0.377624        -0.454337
 C         1.298805         0.388080        -0.189959
 C         1.842586         0.636328         1.280227
 C         3.292921         0.769048         0.679147
 O         4.399389         0.232781         1.471721
 C         3.633389         2.264880         0.141843
 O         2.618648         2.469213        -0.869506
 C         2.042119         1.199679        -1.168256
 C         2.793543        -0.000864        -0.598391
 H        -0.179554        -1.320501         0.087985
 H        -0.772037         0.356177        -0.391765
 H        -0.056207        -0.839764        -1.435689
 H         1.466128         1.519710         1.817887
 H         1.840264        -0.386580         1.723148
 H         4.763667         0.983949         2.021607
 H         3.318266         3.051455         0.811934
 H         4.642516         2.486462        -0.145701
 H         1.550229         1.224191        -2.163119
 H         3.210416        -0.785719        -1.312961
