19
Iteration:   686
 C        -0.144524        -0.403415        -0.351294
 C         1.313626         0.309760        -0.146077
 C         1.928946         0.744901         1.202049
 C         3.400506         0.809561         0.661374
 O         4.353917         0.312786         1.605140
 C         3.750459         2.089097        -0.053938
 O         2.611706         2.488977        -0.821393
 C         2.016812         1.261431        -1.229344
 C         2.770112         0.014343        -0.609616
 H        -0.000395        -1.475314        -0.010346
 H        -0.926748         0.114304         0.215262
 H        -0.241805        -0.434366        -1.441814
 H         1.433907         1.631817         1.500459
 H         1.712424        -0.102792         1.850031
 H         4.007527         0.456884         2.482584
 H         3.947924         3.056924         0.516961
 H         4.521251         1.798759        -0.903142
 H         1.815653         1.138050        -2.369280
 H         3.234614        -0.836880        -1.121705
