19
Iteration:   102
 C        -0.162666        -0.190495        -0.311983
 C         1.237951         0.369787        -0.082119
 C         1.842608         1.004957         1.213303
 C         3.404583         0.755053         0.680379
 O         4.511258         0.282861         1.406854
 C         3.790640         2.021481        -0.131491
 O         2.556140         2.345124        -0.872731
 C         2.013239         1.051441        -1.154564
 C         2.779551        -0.059773        -0.428633
 H        -0.326289        -1.146152         0.140742
 H        -0.933545         0.467906         0.140253
 H        -0.357740        -0.265233        -1.366273
 H         1.610752         2.043750         1.215220
 H         1.582024         0.469594         2.123289
 H         4.307444         0.219272         2.376619
 H         4.132007         2.907577         0.450352
 H         4.525689         1.752707        -0.864104
 H         1.680085         1.056787        -2.285650
 H         3.217857        -0.911026        -0.963761
