19
Iteration:  1127charge 0 multiplicity 1
 C         0.082905        -0.481642        -0.523914
 C         1.329476         0.325063        -0.181074
 C         1.906554         0.659084         1.186834
 C         3.362768         0.819148         0.617929
 O         4.253639         0.325233         1.587646
 C         3.681043         2.230057         0.093372
 O         2.550165         2.553068        -0.673861
 C         2.016551         1.240805        -1.159544
 C         2.756212         0.024756        -0.642539
 H         0.063655        -1.403379         0.065481
 H        -0.801369         0.104614        -0.561853
 H         0.096512        -0.956586        -1.562160
 H         1.571813         1.518382         1.776519
 H         1.753585        -0.233628         1.814810
 H         4.963379        -0.176760         1.098995
 H         3.826360         2.723333         1.033935
 H         4.621288         2.263547        -0.474791
 H         1.731857         1.129038        -2.181602
 H         3.059376        -0.735911        -1.376274
