19
Iteration:  3740charge 0 multiplicity 1
 C         0.288045        -0.513030        -0.573168
 C         1.433014         0.325764        -0.263465
 C         1.835019         0.570838         1.196326
 C         3.254345         0.763127         0.730560
 O         4.249973         0.270031         1.534024
 C         3.468917         2.206942         0.347011
 O         2.532672         2.603318        -0.779287
 C         2.048073         1.344487        -1.200575
 C         2.870383         0.154258        -0.735204
 H         0.318655        -1.572650        -0.158679
 H        -0.551476        -0.077330        -0.181338
 H         0.210401        -0.736279        -1.651471
 H         1.585987         1.477433         1.649584
 H         1.781425        -0.187333         1.955462
 H         4.354411        -0.627497         1.205356
 H         3.172228         2.717423         1.352263
 H         4.545418         2.342096        -0.000718
 H         1.631317         1.291837        -2.181837
 H         3.431743        -0.734878        -1.146725
