19
Iteration:  4484charge 0 multiplicity 1
 C         0.103353        -0.483057        -0.585238
 C         1.345631         0.293521        -0.321817
 C         1.875179         0.430973         1.228908
 C         3.274505         0.843803         0.663148
 O         4.267923         0.246174         1.420074
 C         3.444716         2.360725         0.393794
 O         2.562144         2.664676        -0.732828
 C         2.164628         1.199732        -1.178246
 C         2.976969         0.187170        -0.614182
 H         0.156387        -1.379122         0.204399
 H        -0.729721         0.066683        -0.311297
 H         0.142977        -1.075659        -1.568678
 H         1.058228         1.006983         1.770050
 H         1.942954        -0.605413         1.484394
 H         4.059912        -0.721769         1.306276
 H         3.072495         2.977830         1.258318
 H         4.527342         2.625197         0.165881
 H         1.965001         1.100957        -2.208599
 H         3.684473        -0.465542        -1.198996
