19
Iteration:   872
 C         0.012930        -0.519670        -0.360664
 C         1.248745         0.423596        -0.162764
 C         1.869154         0.769221         1.314756
 C         3.274923         0.864389         0.737909
 O         4.397284         0.149260         1.384691
 C         3.573420         2.246593         0.176422
 O         2.749904         2.463530        -0.979831
 C         2.077132         1.223436        -1.273173
 C         2.742982         0.126059        -0.599199
 H         0.238920        -1.491090         0.166636
 H        -0.986285        -0.155373         0.029798
 H        -0.240131        -0.929184        -1.352726
 H         1.570288         1.799193         1.753001
 H         1.889576        -0.111562         2.073993
 H         4.097741        -0.097396         2.275627
 H         3.276459         2.927678         0.993179
 H         4.682101         2.384734        -0.099172
 H         1.812923         1.149137        -2.298112
 H         3.100654        -0.798609        -1.100365
