19
Iteration:  1089charge 0 multiplicity 1
 C         0.154090        -0.397600        -0.552880
 C         1.405029         0.253999        -0.163532
 C         1.799108         0.729640         1.186914
 C         3.339117         0.788148         0.700901
 O         4.333610         0.259852         1.492348
 C         3.692756         2.123509         0.028535
 O         2.476729         2.534604        -0.675954
 C         1.999016         1.223308        -1.118154
 C         2.804126         0.052222        -0.640103
 H         0.050066        -1.489111        -0.180239
 H        -0.640177         0.239337         0.073827
 H        -0.024477        -0.369122        -1.627202
 H         1.273097         1.625885         1.558411
 H         1.630050        -0.165892         1.802586
 H         4.437519         0.705686         2.324554
 H         3.904128         3.017013         0.701819
 H         4.564882         1.985825        -0.712571
 H         1.605317         1.322480        -2.146027
 H         3.294344        -0.783691        -1.219310
