19
Iteration:   926charge 0 multiplicity 1
 C         0.061678        -0.474886        -0.414236
 C         1.320201         0.325595        -0.163116
 C         1.886399         0.814901         1.213876
 C         3.300601         0.809052         0.712633
 O         4.295742         0.178074         1.548995
 C         3.665118         2.239353         0.079191
 O         2.563277         2.504530        -0.842726
 C         2.044934         1.227059        -1.208479
 C         2.772371         0.050400        -0.585148
 H        -0.118057        -1.435996         0.141111
 H        -0.829452         0.218222        -0.231561
 H         0.053145        -0.772529        -1.481045
 H         1.645623         1.845524         1.594435
 H         1.728997        -0.067964         1.908294
 H         5.024685        -0.127291         0.984741
 H         3.803758         2.931379         0.915648
 H         4.616931         2.229176        -0.445778
 H         1.718227         1.172592        -2.202703
 H         3.369572        -0.729921        -1.159544
