19
Iteration:  4526
 C         0.197959        -0.497866        -0.676180
 C         1.428914         0.345417        -0.224926
 C         1.756343         0.573152         1.195883
 C         3.288321         0.674893         0.655151
 O         4.363723         0.344821         1.409802
 C         3.480131         2.236694         0.461320
 O         2.563956         2.577485        -0.719465
 C         2.044114         1.327734        -1.148352
 C         2.840463         0.086835        -0.682064
 H         0.093614        -1.388143        -0.042497
 H        -0.795865        -0.124185        -0.639884
 H         0.511983        -0.979369        -1.653011
 H         1.627224         1.592267         1.546858
 H         1.647246        -0.207035         1.909715
 H         4.377452        -0.557628         1.678516
 H         3.000783         2.619842         1.374437
 H         4.469169         2.715252         0.264456
 H         1.819486         1.354161        -2.179577
 H         3.351895        -0.651973        -1.340373
