19
Iteration:  2780charge 0 multiplicity 1
 C         0.260259        -0.535440        -0.604396
 C         1.270325         0.452223        -0.118676
 C         1.812908         0.602512         1.316613
 C         3.275813         0.777314         0.746308
 O         4.426763         0.301929         1.405383
 C         3.526667         2.219369         0.304951
 O         2.620191         2.542092        -0.860358
 C         2.042729         1.309330        -1.206661
 C         2.707436         0.080078        -0.636185
 H         0.271695        -1.502597        -0.005892
 H        -0.777792        -0.085601        -0.466122
 H         0.317458        -0.835286        -1.699986
 H         1.398111         1.445035         1.961545
 H         1.737557        -0.321995         1.889061
 H         4.468454        -0.661267         1.257647
 H         3.341765         2.879406         1.145944
 H         4.595873         2.472393        -0.078158
 H         1.628365         1.165800        -2.183201
 H         2.897722        -0.829089        -1.230521
