19
Iteration:  1578
 C         0.112662        -0.481183        -0.545871
 C         1.376972         0.326362        -0.247456
 C         1.799269         0.475740         1.200264
 C         3.268761         0.782736         0.743883
 O         4.330196         0.249786         1.567022
 C         3.525736         2.292130         0.223789
 O         2.629185         2.556573        -0.810503
 C         2.056691         1.267915        -1.156976
 C         2.824103         0.161001        -0.662509
 H         0.249386        -1.470099        -0.070456
 H        -0.743191        -0.059210        -0.066233
 H        -0.062881        -0.685833        -1.602077
 H         1.266866         1.368495         1.742523
 H         1.668198        -0.542616         1.626917
 H         5.137876         0.463071         1.127592
 H         3.398588         2.840768         1.170497
 H         4.586325         2.479645        -0.129785
 H         1.647885         1.449444        -2.147438
 H         3.309289        -0.557591        -1.477092
