19
Iteration:  1022
 C         0.110436        -0.478705        -0.365494
 C         1.341201         0.406501        -0.164166
 C         1.859384         0.619798         1.328388
 C         3.192986         0.760233         0.696350
 O         4.253974         0.252997         1.434184
 C         3.499678         2.264516         0.273696
 O         2.788475         2.499807        -1.007247
 C         2.089624         1.265875        -1.240721
 C         2.806010         0.088238        -0.638582
 H        -0.061850        -1.286643         0.355992
 H        -0.836074         0.137513        -0.042703
 H        -0.100596        -0.767194        -1.401918
 H         1.520404         1.407590         2.016559
 H         1.885083        -0.341474         1.836389
 H         4.994100         0.012380         0.776252
 H         3.070571         3.052974         0.966115
 H         4.638188         2.365944         0.172283
 H         1.547296         1.197447        -2.150305
 H         3.255699        -0.854882        -1.106743
