19
Iteration:  3869
 C         0.225621        -0.446262        -0.588158
 C         1.487742         0.217808        -0.285453
 C         1.725700         0.579452         1.148633
 C         3.283458         0.821622         0.708594
 O         4.380054         0.296353         1.532196
 C         3.523674         2.237530         0.256941
 O         2.453284         2.567740        -0.632258
 C         2.019252         1.251475        -1.228789
 C         2.939756         0.124590        -0.707847
 H         0.014160        -1.368740         0.041697
 H        -0.582979         0.325214        -0.337130
 H        -0.092470        -0.553045        -1.625683
 H         1.033212         1.474714         1.475575
 H         1.592019        -0.324669         1.741457
 H         4.053818        -0.558559         1.970592
 H         3.489018         2.899093         1.123392
 H         4.554119         2.195040        -0.025443
 H         1.791677         1.238866        -2.302694
 H         3.734602        -0.499701        -1.170527
