19
Iteration:  2532charge 0 multiplicity 1
 C         0.036790        -0.395082        -0.668144
 C         1.353648         0.215065        -0.247284
 C         1.812776         0.515925         1.209249
 C         3.372581         0.706947         0.715068
 O         4.523067         0.485294         1.577998
 C         3.613981         2.202177         0.162483
 O         2.438939         2.529582        -0.577156
 C         1.947382         1.259638        -1.150581
 C         2.863849         0.090108        -0.770153
 H         0.042667        -1.467641        -0.288904
 H        -0.798583         0.118155        -0.151809
 H        -0.059336        -0.393069        -1.813081
 H         1.473248         1.413934         1.650607
 H         1.615928        -0.219471         2.033759
 H         4.599220        -0.437129         1.824788
 H         3.766362         3.010768         0.879392
 H         4.454849         2.036632        -0.574098
 H         1.583553         1.294427        -2.236717
 H         3.300098        -0.640619        -1.399426
