19
Iteration:  1253
 C         0.046002        -0.431775        -0.628216
 C         1.337791         0.290605        -0.235197
 C         1.854617         0.689978         1.170089
 C         3.348583         0.811229         0.666433
 O         4.352720         0.380215         1.489519
 C         3.684205         2.204536         0.091960
 O         2.426951         2.467197        -0.572566
 C         2.085053         1.190907        -1.145941
 C         2.875691         0.058143        -0.564032
 H         0.062538        -1.480895        -0.389359
 H        -0.809734        -0.039351        -0.076726
 H         0.010340        -0.316267        -1.660400
 H         1.314449         1.526016         1.669328
 H         2.052798        -0.237872         1.736546
 H         4.123294        -0.552694         1.823998
 H         3.874910         2.951372         0.872304
 H         4.531446         2.098567        -0.528390
 H         1.615765         1.301258        -2.133307
 H         3.344630        -0.483710        -1.302615
