19
Iteration:  4480charge 0 multiplicity 1
 C         0.129306        -0.513389        -0.603674
 C         1.393332         0.342146        -0.299033
 C         1.868778         0.444060         1.209009
 C         3.235199         0.837826         0.637717
 O         4.285527         0.250643         1.445439
 C         3.417023         2.352205         0.357136
 O         2.557346         2.689283        -0.704918
 C         2.153438         1.183265        -1.150931
 C         2.978968         0.133143        -0.621807
 H         0.065842        -1.278177         0.068747
 H        -0.756281         0.120559        -0.276617
 H         0.034922        -0.942916        -1.586246
 H         1.172707         1.036610         1.731985
 H         2.007984        -0.602816         1.517604
 H         4.086792        -0.674292         1.389973
 H         3.174603         2.910191         1.258236
 H         4.481612         2.484396         0.106841
 H         1.882434         1.055469        -2.220002
 H         3.632639        -0.401603        -1.243886
