19
Iteration:  3702charge 0 multiplicity 1
 C        -0.016714        -0.526282        -0.614040
 C         1.424727         0.190929        -0.389910
 C         1.852195         0.567011         1.071090
 C         3.258574         0.826524         0.648534
 O         4.390086         0.337793         1.550400
 C         3.612608         2.258702         0.289839
 O         2.406053         2.568503        -0.515871
 C         2.106653         1.261185        -1.245176
 C         3.002841         0.166184        -0.597507
 H         0.108079        -1.370405         0.002419
 H        -0.942923         0.075888        -0.211225
 H        -0.274049        -0.742048        -1.656090
 H         1.303074         1.560100         1.389250
 H         1.705475        -0.327788         1.748919
 H         4.132259        -0.573244         1.929975
 H         3.755659         2.927960         1.114859
 H         4.494441         2.270305        -0.331739
 H         1.949573         1.358193        -2.350777
 H         3.520890        -0.520612        -1.199493
