19
Iteration:  4601charge 0 multiplicity 1
 C         0.192524        -0.607036        -0.635606
 C         1.377605         0.295179        -0.306543
 C         1.866900         0.699335         1.123398
 C         3.360821         0.789466         0.645285
 O         4.274041         0.274433         1.541606
 C         3.627071         2.252832         0.387771
 O         2.424409         2.497768        -0.570524
 C         2.083627         1.308366        -1.262021
 C         2.845833         0.179534        -0.750659
 H         0.202342        -1.615296        -0.397570
 H        -0.628737        -0.168983         0.008452
 H        -0.076524        -0.512285        -1.718487
 H         1.411067         1.592415         1.606169
 H         1.866338        -0.169656         1.804127
 H         4.065952        -0.692185         1.734109
 H         3.494556         2.905746         1.242923
 H         4.622087         2.463927        -0.025093
 H         1.624249         1.662706        -2.164370
 H         3.369334        -0.746013        -1.109345
