19
Iteration:   302charge 0 multiplicity 1
 C        -0.041851        -0.329508        -0.146404
 C         1.326014         0.447245        -0.111698
 C         1.869588         1.031077         1.158636
 C         3.315318         0.836516         0.666516
 O         4.332631         0.123490         1.397283
 C         3.667440         2.195269         0.104136
 O         2.704670         2.391150        -1.034860
 C         2.070081         1.051340        -1.269962
 C         2.747092         0.004834        -0.442029
 H         0.120730        -1.210993         0.450868
 H        -0.808405         0.199964         0.338322
 H        -0.466648        -0.607216        -1.089681
 H         1.588872         1.866396         1.774998
 H         1.659088         0.228236         1.907699
 H         4.311253        -0.679771         0.877527
 H         3.435932         3.029377         0.784852
 H         4.639261         2.338195        -0.311499
 H         1.662420         0.778710        -2.317580
 H         3.204223        -0.936556        -0.800386
