19
Iteration:  2024
 C         0.221876        -0.551423        -0.502594
 C         1.316542         0.372628        -0.140323
 C         1.875550         0.583003         1.183659
 C         3.274514         0.838987         0.597766
 O         4.329345         0.246833         1.305155
 C         3.515462         2.284794         0.355225
 O         2.583333         2.535323        -0.745452
 C         2.071244         1.302057        -1.125242
 C         2.808426         0.152134        -0.672614
 H         0.097567        -1.357850         0.190026
 H        -0.753759        -0.072356        -0.446905
 H         0.298712        -1.230486        -1.434588
 H         1.407088         1.383311         1.805873
 H         1.910979        -0.375397         1.775427
 H         3.999416        -0.473884         1.940812
 H         3.319245         2.935150         1.239998
 H         4.647643         2.388040         0.000971
 H         1.551293         1.205395        -2.102133
 H         3.298444        -0.608199        -1.348140
