19
Iteration:  1383
 C         0.124458        -0.347843        -0.708706
 C         1.416670         0.230053        -0.244205
 C         1.906528         0.687900         1.218378
 C         3.401706         0.823285         0.697815
 O         4.376025         0.159086         1.442743
 C         3.586746         2.313585         0.150346
 O         2.286844         2.506833        -0.623725
 C         2.090439         1.174152        -1.136773
 C         2.881054        -0.001511        -0.561395
 H        -0.063116        -1.307185        -0.187170
 H        -0.593812         0.422133        -0.269887
 H        -0.138528        -0.379986        -1.757198
 H         1.332916         1.579824         1.499845
 H         1.653294        -0.010642         1.989894
 H         4.318406         0.600008         2.275845
 H         3.600707         2.976291         1.050725
 H         4.507033         2.449097        -0.525974
 H         1.695162         1.268502        -2.146855
 H         3.569218        -0.737157        -1.082594
