19
Iteration:  3888
 C         0.209991        -0.526034        -0.705366
 C         1.314726         0.340197        -0.231026
 C         1.827829         0.674644         1.235262
 C         3.239887         0.742278         0.742091
 O         4.397132         0.338169         1.409083
 C         3.461007         2.254213         0.360675
 O         2.511616         2.499365        -0.711772
 C         2.169382         1.262301        -1.166465
 C         2.867788         0.105197        -0.636062
 H         0.330318        -1.462214        -0.200344
 H        -0.863382        -0.123918        -0.507734
 H         0.240398        -0.653644        -1.774388
 H         1.384358         1.500484         1.746853
 H         1.623221        -0.221515         1.829621
 H         4.254739        -0.611603         1.650897
 H         3.184742         2.918016         1.166771
 H         4.546710         2.443525        -0.060732
 H         1.876908         1.519819        -2.158765
 H         3.177641        -0.852513        -1.102035
