19
Iteration:  1493
 C         0.180649        -0.516706        -0.600771
 C         1.339501         0.302742        -0.152710
 C         1.784984         0.729716         1.285511
 C         3.230489         0.879263         0.717254
 O         4.297775         0.164894         1.336397
 C         3.529513         2.358574         0.370114
 O         2.581322         2.462686        -0.769853
 C         2.101128         1.224279        -1.204052
 C         2.885355         0.110212        -0.595468
 H         0.133291        -1.459195         0.021719
 H        -0.812276         0.073503        -0.691627
 H         0.276106        -0.829738        -1.636197
 H         1.327304         1.536350         1.808909
 H         1.682623        -0.135660         1.891388
 H         4.973294        -0.136978         0.661756
 H         3.235307         2.905644         1.277153
 H         4.529194         2.539859         0.000053
 H         1.838033         1.236138        -2.241080
 H         3.508064        -0.744479        -1.056911
