19
Iteration:  3137
 C         0.121940        -0.415790        -0.751671
 C         1.395732         0.256271        -0.207190
 C         1.896132         0.653985         1.266315
 C         3.352759         0.843301         0.697133
 O         4.383555         0.297776         1.508509
 C         3.573158         2.274271         0.177882
 O         2.385133         2.487540        -0.601438
 C         2.039571         1.162625        -1.096496
 C         2.855316         0.064628        -0.614880
 H        -0.161067        -1.429337        -0.311071
 H        -0.641757         0.234822        -0.397528
 H         0.198551        -0.428413        -1.795754
 H         1.498736         1.555472         1.645247
 H         1.799184        -0.223588         1.881703
 H         4.531462        -0.374295         0.822502
 H         3.437298         3.065650         0.944119
 H         4.518269         2.295450        -0.381858
 H         1.844028         1.226498        -2.146505
 H         3.238272        -0.476047        -1.474879
