19
Iteration:  1281charge 0 multiplicity 1
 C         0.174380        -0.453818        -0.526966
 C         1.427263         0.242832        -0.198020
 C         1.822444         0.773654         1.228660
 C         3.318846         0.770001         0.676732
 O         4.375952         0.078335         1.418178
 C         3.534564         2.296940         0.284481
 O         2.450593         2.545964        -0.787499
 C         2.078009         1.232773        -1.242815
 C         2.834403         0.118290        -0.631960
 H         0.120293        -1.468863        -0.035205
 H        -0.691517         0.069685        -0.092896
 H         0.169076        -0.495760        -1.689622
 H         1.367465         1.742195         1.471136
 H         1.797120         0.048194         2.022783
 H         4.331183         0.424916         2.378922
 H         3.364611         2.941569         1.153675
 H         4.615118         2.413863        -0.090614
 H         1.428076         1.280231        -2.114112
 H         3.375806        -0.638632        -1.249021
