19
Iteration:  1916
 C         0.153609        -0.568407        -0.408099
 C         1.396880         0.362933        -0.231507
 C         1.806347         0.618183         1.212803
 C         3.242750         0.794718         0.623373
 O         4.368833         0.233889         1.417760
 C         3.489862         2.330865         0.374827
 O         2.623687         2.515716        -0.795114
 C         2.069292         1.318126        -1.209029
 C         2.817278         0.118779        -0.762849
 H         0.574432        -1.401163         0.100551
 H        -0.771781        -0.203283        -0.022333
 H        -0.040285        -0.809186        -1.516256
 H         1.478661         1.480451         1.772015
 H         1.875670        -0.297606         1.866740
 H         4.153075        -0.678443         1.647282
 H         3.249056         3.047256         1.108734
 H         4.514479         2.606281         0.175311
 H         1.593129         1.466646        -2.201088
 H         3.164952        -0.817342        -1.160525
