19
Iteration:  4018
 C         0.196020        -0.447041        -0.744608
 C         1.362079         0.284563        -0.247827
 C         1.797939         0.552704         1.282778
 C         3.287527         0.787715         0.699560
 O         4.363545         0.266631         1.456261
 C         3.618696         2.341790         0.307908
 O         2.464050         2.573876        -0.713208
 C         2.053750         1.233400        -1.142919
 C         2.884946         0.097250        -0.629555
 H         0.062134        -1.400460        -0.292808
 H        -0.779671         0.103317        -0.449412
 H         0.315413        -0.742358        -1.777646
 H         1.238182         1.194230         1.956608
 H         2.041397        -0.458738         1.815739
 H         3.915348        -0.446709         2.022023
 H         3.328593         3.159341         0.926112
 H         4.537430         2.492956        -0.238787
 H         1.548105         1.188753        -2.081142
 H         3.521971        -0.652323        -1.137541
