19
Iteration:  1626
 C         0.227005        -0.520568        -0.630955
 C         1.369457         0.329884        -0.163960
 C         1.750310         0.678708         1.264537
 C         3.265770         0.798657         0.761963
 O         4.349192         0.071489         1.362404
 C         3.473034         2.437549         0.351463
 O         2.572667         2.538978        -0.844614
 C         2.060669         1.221863        -1.135513
 C         2.855023         0.136210        -0.556669
 H         0.265122        -1.541654        -0.142399
 H        -0.811289        -0.021948        -0.280845
 H         0.219887        -0.686575        -1.726744
 H         1.368602         1.633619         1.633266
 H         1.852137        -0.227632         1.879699
 H         4.962856        -0.306296         0.662467
 H         3.043112         3.220570         1.088158
 H         4.518413         2.590870         0.054688
 H         1.818404         1.284533        -2.199803
 H         3.374908        -0.619543        -1.005345
