19
Iteration:  4239charge 0 multiplicity 1
 C         0.181579        -0.627819        -0.569128
 C         1.358707         0.331228        -0.355690
 C         1.837118         0.575610         1.167177
 C         3.296596         0.735878         0.687080
 O         4.290407         0.237618         1.453342
 C         3.491995         2.312925         0.425658
 O         2.551140         2.654306        -0.685116
 C         2.107114         1.328086        -1.192951
 C         2.873034         0.168167        -0.706065
 H         0.471618        -1.586012        -0.149347
 H        -0.751711        -0.196460        -0.044360
 H        -0.206933        -0.666889        -1.591895
 H         1.353017         1.307034         1.826949
 H         1.820710        -0.400230         1.785948
 H         4.335459        -0.764654         1.426682
 H         3.275039         2.902183         1.307503
 H         4.512757         2.600970         0.099047
 H         1.941560         1.361658        -2.239671
 H         3.409090        -0.622284        -1.252032
