19
Iteration:  3155
 C         0.186800        -0.442013        -0.652737
 C         1.368840         0.309321        -0.174857
 C         1.817040         0.663940         1.234651
 C         3.317269         0.749561         0.661710
 O         4.427774         0.290312         1.368503
 C         3.509292         2.285000         0.282952
 O         2.459702         2.514478        -0.657622
 C         2.052729         1.257523        -1.188285
 C         2.837669         0.086388        -0.589522
 H         0.279812        -1.530610        -0.309403
 H        -0.845483         0.011298        -0.520551
 H         0.288028        -0.555258        -1.773820
 H         1.297096         1.547110         1.827949
 H         1.889147        -0.214483         1.903043
 H         4.255974        -0.633786         1.690023
 H         3.456378         2.911099         1.155843
 H         4.539755         2.403217        -0.245933
 H         1.569376         1.232040        -2.162397
 H         3.374804        -0.872729        -0.889767
