19
Iteration:   987charge 0 multiplicity 1
 C         0.044035        -0.363856        -0.482688
 C         1.338747         0.354612        -0.179379
 C         1.830243         0.678601         1.279070
 C         3.283894         0.762269         0.665886
 O         4.429701         0.236619         1.464821
 C         3.604088         2.222929         0.141495
 O         2.560364         2.483408        -0.868982
 C         2.052522         1.191282        -1.143357
 C         2.832579        -0.020893        -0.614124
 H        -0.141125        -1.236668         0.177646
 H        -0.690108         0.453999        -0.396402
 H        -0.038004        -0.731187        -1.559037
 H         1.518140         1.585035         1.856883
 H         1.685837        -0.228916         1.897762
 H         4.485480         0.970488         2.151929
 H         3.529858         2.972093         1.001390
 H         4.641315         2.318550        -0.342927
 H         1.563434         1.306885        -2.124034
 H         3.155323        -0.756716        -1.270203
