19
Iteration:  4527
 C         0.193851        -0.501106        -0.685688
 C         1.428562         0.359740        -0.222932
 C         1.762217         0.570346         1.196528
 C         3.279224         0.674268         0.647731
 O         4.362933         0.351201         1.408765
 C         3.491819         2.238936         0.458058
 O         2.557281         2.563240        -0.710762
 C         2.049951         1.330965        -1.146872
 C         2.835147         0.087773        -0.673198
 H         0.060829        -1.447207        -0.058527
 H        -0.769471        -0.124395        -0.630786
 H         0.529270        -0.966951        -1.671374
 H         1.633099         1.614122         1.542371
 H         1.676119        -0.218909         1.891407
 H         4.374486        -0.568181         1.707676
 H         3.023086         2.646736         1.386380
 H         4.483966         2.725491         0.240072
 H         1.811089         1.337366        -2.185183
 H         3.345072        -0.667644        -1.339227
