19
Iteration:  2497charge 0 multiplicity 1
 C         0.229826        -0.443246        -0.610798
 C         1.366158         0.284145        -0.140221
 C         1.836253         0.579186         1.309166
 C         3.281484         0.827646         0.665307
 O         4.399814         0.279813         1.283909
 C         3.505754         2.356296         0.340392
 O         2.559036         2.515959        -0.745498
 C         2.019330         1.220668        -1.163795
 C         2.777245         0.091463        -0.617579
 H         0.366024        -1.590139        -0.268572
 H        -0.710992        -0.093855        -0.239991
 H         0.122324        -0.467739        -1.799568
 H         1.380270         1.422772         1.820380
 H         1.777341        -0.392428         1.898395
 H         4.078642        -0.578060         1.584464
 H         3.313240         3.001478         1.216554
 H         4.527610         2.628166        -0.008229
 H         1.782900         1.276338        -2.254236
 H         3.211485        -0.842232        -1.021754
