19
Iteration:  1324
 C         0.129351        -0.664636        -0.420026
 C         1.279540         0.372153        -0.214354
 C         1.805659         0.571836         1.258570
 C         3.265802         0.883268         0.751337
 O         4.301610         0.213332         1.444039
 C         3.529025         2.251692         0.328140
 O         2.725553         2.618654        -0.857328
 C         2.146130         1.335646        -1.250428
 C         2.727831         0.138625        -0.686343
 H        -0.061423        -1.416459         0.380726
 H        -0.842550        -0.198250        -0.379696
 H         0.378226        -1.156310        -1.431315
 H         1.264737         1.318809         1.761950
 H         1.787214        -0.436117         1.553855
 H         4.906817        -0.183831         0.734315
 H         3.214925         2.959642         1.090929
 H         4.586444         2.474226         0.102213
 H         1.855000         1.449636        -2.296866
 H         3.256482        -0.693288        -1.169748
