19
Iteration:  1538
 C         0.156400        -0.388378        -0.585600
 C         1.394976         0.230121        -0.241210
 C         1.864754         0.612782         1.151733
 C         3.375467         0.760805         0.640336
 O         4.215064         0.316477         1.646877
 C         3.619052         2.184909         0.098843
 O         2.446668         2.485371        -0.526446
 C         2.027603         1.263862        -1.192785
 C         2.895885         0.089504        -0.759456
 H        -0.034743        -1.339904        -0.014839
 H        -0.658125         0.411531        -0.342950
 H        -0.013413        -0.570509        -1.640304
 H         1.404792         1.416544         1.682374
 H         1.971094        -0.265583         1.775598
 H         5.148126         0.676855         1.496477
 H         3.600024         3.013415         0.829955
 H         4.520096         2.161534        -0.517290
 H         1.457358         1.272154        -2.136618
 H         3.379529        -0.571190        -1.452501
