19
Iteration:  1177
 C         0.147060        -0.464068        -0.424508
 C         1.378783         0.326141        -0.174302
 C         1.780173         0.723555         1.255896
 C         3.248253         0.801476         0.734845
 O         4.362859         0.068824         1.239801
 C         3.415895         2.348378         0.336104
 O         2.632796         2.537544        -0.921375
 C         2.137799         1.230733        -1.197726
 C         2.864746         0.096284        -0.598650
 H         0.155976        -1.305680         0.265641
 H        -0.715276         0.263916        -0.348243
 H         0.083387        -0.968289        -1.349020
 H         1.326334         1.624482         1.696990
 H         1.628981        -0.115531         1.987010
 H         4.414767        -0.001575         2.187556
 H         2.997903         3.015550         1.132555
 H         4.491667         2.559712         0.191157
 H         1.828177         1.158013        -2.269930
 H         3.569157        -0.603611        -0.852084
