19
Iteration:  4130charge 0 multiplicity 1
 C         0.219131        -0.392172        -0.696472
 C         1.483386         0.145654        -0.247409
 C         1.889232         0.552107         1.214447
 C         3.372067         0.796489         0.642103
 O         4.269819         0.387398         1.508167
 C         3.616310         2.178996         0.243370
 O         2.353953         2.513502        -0.528313
 C         2.008791         1.257293        -1.138557
 C         2.892531         0.156980        -0.782399
 H        -0.126937        -1.377995        -0.374624
 H        -0.588330         0.382789        -0.302218
 H         0.276547        -0.281215        -1.787170
 H         1.388743         1.444472         1.683245
 H         1.761676        -0.480917         1.810429
 H         3.765535        -0.130572         2.124869
 H         3.653670         2.906792         1.050049
 H         4.589830         2.256404        -0.345185
 H         1.540687         1.313253        -2.144485
 H         3.360498        -0.706234        -1.271884
