19
Iteration:     8
 C        -0.089905        -0.292145        -0.122364
 C         1.260123         0.497220        -0.085372
 C         1.945645         0.984822         1.225383
 C         3.335198         0.838531         0.576662
 O         4.272015         0.196987         1.388813
 C         3.747560         2.087903        -0.081764
 O         2.749595         2.323293        -1.032703
 C         2.029461         1.077759        -1.177574
 C         2.694978        -0.065607        -0.429625
 H        -0.248028        -1.046118         0.717691
 H        -0.919779         0.409136         0.029359
 H        -0.185009        -0.745306        -1.140103
 H         1.609537         1.973127         1.801206
 H         1.961839         0.081143         1.915051
 H         4.725371         0.764497         2.030772
 H         3.724297         2.829926         0.726842
 H         4.720095         2.097071        -0.657435
 H         1.608126         0.828673        -2.099008
 H         2.964248        -0.984930        -0.967354
