19
Iteration:  3765
 C         0.285818        -0.569397        -0.723472
 C         1.297332         0.362359        -0.195412
 C         1.755829         0.609103         1.283019
 C         3.266144         0.816110         0.771789
 O         4.387236         0.196370         1.412916
 C         3.469871         2.451845         0.347443
 O         2.645636         2.523216        -0.785870
 C         2.010840         1.255414        -1.175645
 C         2.779936         0.148859        -0.576798
 H         0.435307        -1.612916        -0.409874
 H        -0.814368        -0.382708        -0.532585
 H         0.509171        -0.688914        -1.830469
 H         1.522401         1.502503         1.847955
 H         1.741666        -0.274263         1.948021
 H         4.325807        -0.770939         1.177793
 H         3.194017         2.937171         1.288383
 H         4.563627         2.511161         0.035353
 H         1.762969         1.122893        -2.254457
 H         3.223991        -0.654698        -1.135334
