19
Iteration:  3907
 C         0.198795        -0.621733        -0.788430
 C         1.264491         0.366667        -0.163072
 C         1.805274         0.657041         1.286319
 C         3.298456         0.808344         0.681324
 O         4.394085         0.322489         1.379133
 C         3.509295         2.290751         0.460632
 O         2.691647         2.556862        -0.793626
 C         2.006833         1.231862        -1.192145
 C         2.750670         0.102478        -0.500900
 H         0.381807        -1.620705        -0.403226
 H        -0.830311        -0.306860        -0.636349
 H         0.441781        -0.662062        -1.888717
 H         1.454263         1.471844         1.917518
 H         1.770900        -0.290410         1.908015
 H         4.292836        -0.631482         1.316291
 H         3.044861         2.865523         1.289503
 H         4.502354         2.645967         0.107953
 H         1.638631         1.068595        -2.252114
 H         3.309225        -0.540592        -1.193949
