19
Iteration:   361charge 0 multiplicity 1
 C        -0.067491        -0.314935        -0.298288
 C         1.211955         0.444894        -0.071786
 C         1.874612         0.837145         1.223978
 C         3.384972         0.743194         0.575323
 O         4.363783         0.263770         1.525339
 C         3.819350         2.136451        -0.061176
 O         2.660926         2.379888        -0.929657
 C         2.025863         1.201586        -1.147178
 C         2.637980        -0.082814        -0.531980
 H        -0.175415        -1.160195         0.448240
 H        -0.998830         0.341566        -0.266305
 H        -0.012431        -0.848674        -1.285772
 H         1.692564         1.734946         1.819434
 H         1.830378        -0.111879         1.725763
 H         4.727878         1.073944         1.990132
 H         3.950235         3.024683         0.547918
 H         4.713811         2.111184        -0.701217
 H         1.638852         1.003458        -2.102991
 H         2.971278        -0.978386        -1.041727
