19
Iteration:  1683
 C         0.100483        -0.497133        -0.550038
 C         1.362797         0.227074        -0.303723
 C         1.915917         0.693646         1.088033
 C         3.407819         0.743520         0.644694
 O         4.258342         0.295353         1.673590
 C         3.655029         2.157973         0.155689
 O         2.401804         2.527910        -0.501892
 C         1.993541         1.372794        -1.236633
 C         2.867482         0.073750        -0.773335
 H         0.055019        -1.374313         0.146845
 H        -0.902193         0.099621        -0.473852
 H         0.051922        -0.944121        -1.634193
 H         1.331716         1.459178         1.591494
 H         2.013971        -0.167072         1.831314
 H         5.129493         0.699367         1.537286
 H         3.846444         2.852502         1.011472
 H         4.619919         2.088683        -0.378987
 H         1.710466         1.604421        -2.245973
 H         3.313377        -0.668021        -1.480522
