19
Iteration:   512
 C         0.073734        -0.244134        -0.375483
 C         1.431201         0.285092        -0.041124
 C         1.919493         0.956528         1.214021
 C         3.355286         0.831421         0.655734
 O         4.270890         0.135817         1.586838
 C         3.611000         2.129284        -0.057296
 O         2.534452         2.365813        -0.884051
 C         1.972448         1.121909        -1.208809
 C         2.777207         0.033322        -0.566578
 H         0.022868        -1.257384         0.117741
 H        -0.616221         0.404200         0.132107
 H        -0.157972        -0.190573        -1.444546
 H         1.504679         1.996892         1.317704
 H         1.767513         0.530821         2.229742
 H         5.167968         0.165240         1.091337
 H         3.761235         2.989913         0.659224
 H         4.538609         1.929948        -0.761308
 H         1.567149         1.029159        -2.152175
 H         3.248287        -0.915516        -0.941089
