19
Iteration:   284charge 0 multiplicity 1
 C        -0.099199        -0.313843        -0.188648
 C         1.216479         0.429234        -0.122128
 C         1.896074         0.953760         1.285959
 C         3.375762         0.777300         0.633431
 O         4.356685         0.159652         1.544589
 C         3.704679         2.180125        -0.035420
 O         2.673235         2.365427        -0.961072
 C         2.083643         1.110672        -1.245060
 C         2.717997         0.009392        -0.579683
 H        -0.065049        -1.338238         0.361532
 H        -0.952474         0.247537         0.349018
 H        -0.270110        -0.593782        -1.274999
 H         1.639136         2.025084         1.267196
 H         1.601973         0.369894         2.180138
 H         5.180847         0.004247         1.063556
 H         3.620611         3.024272         0.653472
 H         4.698572         2.122294        -0.556067
 H         1.721507         0.951176        -2.317573
 H         2.982954        -0.897794        -1.109377
