19
Iteration:  4411
 C         0.232963        -0.549726        -0.816335
 C         1.358653         0.240694        -0.249003
 C         1.737402         0.588433         1.264906
 C         3.304348         0.868022         0.743725
 O         4.354364         0.260772         1.449044
 C         3.603495         2.251101         0.197861
 O         2.438494         2.582830        -0.529061
 C         2.064265         1.293598        -1.193173
 C         2.876684         0.165202        -0.600854
 H         0.253958        -1.598205        -0.544847
 H        -0.567589        -0.160408        -0.145786
 H         0.079967        -0.470233        -1.867586
 H         1.298845         1.383279         1.871919
 H         1.936702        -0.307277         1.892161
 H         3.986578        -0.553881         1.739391
 H         3.717422         3.013641         0.992857
 H         4.486281         2.237634        -0.435098
 H         1.961371         1.411694        -2.267777
 H         3.402609        -0.650071        -1.176999
