19
Iteration:  4032
 C         0.191520        -0.539250        -0.746998
 C         1.297943         0.386150        -0.134748
 C         1.846364         0.487000         1.241079
 C         3.333288         0.844604         0.745105
 O         4.417250         0.227152         1.462587
 C         3.455668         2.347069         0.299080
 O         2.575796         2.542282        -0.830456
 C         2.042428         1.300148        -1.131409
 C         2.793119         0.157023        -0.561742
 H         0.218974        -1.503231        -0.241288
 H        -0.850780        -0.095531        -0.785395
 H         0.353011        -0.559839        -1.811734
 H         1.393588         1.210662         1.936396
 H         1.744278        -0.531733         1.615099
 H         4.141990        -0.612546         1.775293
 H         3.412617         2.968435         1.205025
 H         4.550032         2.525028        -0.018302
 H         1.848464         1.244986        -2.229532
 H         3.157795        -0.657308        -1.146540
