19
Iteration:  1707charge 0 multiplicity 1
 C         0.152162        -0.451043        -0.552543
 C         1.380681         0.272992        -0.226739
 C         1.784642         0.647667         1.169348
 C         3.358447         0.778032         0.711777
 O         4.306627         0.157974         1.474531
 C         3.567379         2.250731         0.166891
 O         2.428850         2.560709        -0.641524
 C         2.053630         1.241405        -1.178218
 C         2.956379         0.132919        -0.660005
 H         0.010902        -1.373103         0.061390
 H        -0.719625         0.202808        -0.353072
 H        -0.020975        -0.714809        -1.658240
 H         1.219817         1.512597         1.511400
 H         1.598582        -0.162721         1.883393
 H         4.964575         0.835733         1.832317
 H         3.573454         2.916786         0.995526
 H         4.588522         2.284780        -0.252992
 H         1.757759         1.194901        -2.248069
 H         3.594169        -0.591197        -1.326438
