19
Iteration:  2007charge 0 multiplicity 1
 C         0.143785        -0.527766        -0.599521
 C         1.344069         0.266061        -0.209222
 C         1.868512         0.587271         1.277447
 C         3.312530         0.744783         0.694046
 O         4.465038         0.380137         1.435980
 C         3.601999         2.217197         0.232859
 O         2.582137         2.542089        -0.686037
 C         1.897647         1.335377        -1.173130
 C         2.733142         0.111902        -0.739081
 H         0.087400        -1.535864        -0.054173
 H        -0.767777         0.099475        -0.579326
 H         0.359467        -0.876794        -1.594828
 H         1.434324         1.384157         1.889726
 H         1.851040        -0.376616         1.805915
 H         4.064651        -0.332935         2.033605
 H         3.557573         2.896938         1.086455
 H         4.615694         2.467424        -0.033920
 H         1.493255         1.545348        -2.135323
 H         3.113971        -0.753288        -1.284610
