19
Iteration:   142
 C        -0.074607        -0.282305        -0.189842
 C         1.270016         0.502984        -0.055390
 C         1.959452         0.829272         1.239098
 C         3.341510         0.777707         0.593657
 O         4.265771         0.214637         1.565566
 C         3.764334         2.110333        -0.117013
 O         2.740189         2.359287        -1.074215
 C         1.996901         1.162347        -1.180159
 C         2.660613        -0.019991        -0.527589
 H        -0.030215        -1.265985         0.336871
 H        -0.968093         0.168378         0.293406
 H        -0.257364        -0.433008        -1.273728
 H         1.689950         1.776159         1.856535
 H         1.934393        -0.034331         1.959963
 H         4.979581         0.821885         1.763618
 H         3.683980         2.913375         0.608883
 H         4.796367         2.000159        -0.589136
 H         1.455224         0.976179        -2.147791
 H         2.982966        -0.993519        -0.899313
