19
Iteration:  4614
 C         0.175297        -0.600504        -0.570107
 C         1.363959         0.348007        -0.341739
 C         1.795876         0.697086         1.091978
 C         3.293878         0.765636         0.669825
 O         4.377701         0.233134         1.487475
 C         3.466132         2.278888         0.381778
 O         2.553544         2.540801        -0.577572
 C         2.111110         1.341404        -1.219950
 C         2.861090         0.128034        -0.695231
 H         0.514128        -1.580459        -0.198848
 H        -0.729670        -0.347959        -0.044032
 H        -0.118156        -0.731397        -1.665273
 H         1.441529         1.654432         1.630616
 H         1.514157        -0.136296         1.699718
 H         4.149356        -0.667979         1.653463
 H         3.108765         2.772433         1.315252
 H         4.453872         2.589177        -0.017466
 H         2.060126         1.268789        -2.343110
 H         3.281720        -0.614947        -1.447788
