19
Iteration:   225
 C        -0.184617        -0.264803        -0.316344
 C         1.259645         0.418827        -0.114262
 C         1.915135         0.880567         1.264951
 C         3.378055         0.798874         0.664675
 O         4.550407         0.224206         1.518352
 C         3.742829         2.061525        -0.138662
 O         2.598711         2.417337        -0.969631
 C         1.975431         1.143548        -1.176566
 C         2.707374        -0.029390        -0.443901
 H        -0.458877        -1.043795         0.395197
 H        -0.912653         0.495367        -0.467819
 H        -0.206162        -0.729188        -1.308017
 H         1.534169         1.803601         1.706765
 H         1.845342         0.071101         2.034664
 H         4.282840         0.325020         2.459419
 H         4.054704         2.985586         0.383759
 H         4.561460         1.767281        -0.756616
 H         1.672280         0.919119        -2.168271
 H         3.103266        -0.889746        -1.007887
