19
Iteration:  2005charge 0 multiplicity 1
 C         0.133069        -0.523424        -0.606515
 C         1.338112         0.270131        -0.207247
 C         1.869251         0.584566         1.281882
 C         3.313044         0.742681         0.700860
 O         4.477198         0.386806         1.448527
 C         3.591004         2.208056         0.210300
 O         2.577314         2.552969        -0.677113
 C         1.899610         1.334679        -1.168700
 C         2.751496         0.110136        -0.739252
 H         0.042953        -1.526786        -0.157121
 H        -0.755160         0.080240        -0.545466
 H         0.332918        -0.928182        -1.637145
 H         1.493534         1.415042         1.896330
 H         1.780912        -0.414198         1.831267
 H         4.071349        -0.313424         2.007950
 H         3.555186         2.894402         1.072292
 H         4.692739         2.425466        -0.051871
 H         1.453842         1.491999        -2.136762
 H         3.097522        -0.789951        -1.342939
