19
Iteration:    53
 C         0.119187        -0.199284        -0.109052
 C         1.385698         0.428123        -0.024965
 C         1.866861         0.946260         1.315825
 C         3.217895         0.749122         0.685356
 O         4.297568         0.261874         1.455579
 C         3.615683         2.024244         0.013062
 O         2.793266         2.323611        -1.199924
 C         1.932604         1.145956        -1.184843
 C         2.716547        -0.014095        -0.595892
 H        -0.175149        -0.592197         0.924568
 H        -0.651900         0.567712        -0.043156
 H         0.018019        -0.871432        -0.994705
 H         1.514075         2.034653         1.641522
 H         1.635502         0.091653         2.019086
 H         4.722034        -0.423607         0.908791
 H         3.374571         2.872532         0.628939
 H         4.697055         1.950690        -0.321617
 H         1.457268         1.037401        -2.061511
 H         3.087665        -0.921378        -1.063809
