19
Iteration:  2523charge 0 multiplicity 1
 C        -0.014617        -0.473668        -0.705791
 C         1.347834         0.230334        -0.209173
 C         1.878674         0.586923         1.261899
 C         3.341957         0.683774         0.748748
 O         4.521772         0.478454         1.507238
 C         3.604657         2.213742         0.214919
 O         2.446658         2.506601        -0.669061
 C         1.989738         1.280956        -1.096122
 C         2.859363         0.086198        -0.728438
 H        -0.025687        -1.487939        -0.486653
 H        -0.962543         0.019178        -0.350157
 H        -0.043196        -0.312361        -1.739561
 H         1.491794         1.524424         1.626373
 H         1.598419        -0.338395         1.744146
 H         4.432216        -0.449925         1.690274
 H         3.828717         2.910771         1.040694
 H         4.575043         2.237187        -0.395771
 H         1.452024         1.458636        -2.053012
 H         3.450604        -0.532882        -1.374884
