19
Iteration:  4837charge 0 multiplicity 1
 C         0.199035        -0.395770        -0.693177
 C         1.459378         0.313871        -0.293022
 C         1.900508         0.618658         1.237124
 C         3.346152         0.793658         0.701191
 O         4.292799         0.286607         1.529915
 C         3.507302         2.203901         0.286080
 O         2.395245         2.490242        -0.573045
 C         2.097167         1.265509        -1.274090
 C         2.881262         0.076545        -0.720837
 H        -0.055970        -1.375195        -0.113895
 H        -0.611055         0.270450        -0.494723
 H         0.267046        -0.636073        -1.726734
 H         1.466699         1.517487         1.695468
 H         1.958868        -0.282504         1.819458
 H         4.020659        -0.564027         1.986539
 H         3.357816         2.890681         1.130348
 H         4.458897         2.574921        -0.072995
 H         1.372402         1.331622        -2.109325
 H         3.446477        -0.588583        -1.403854
