19
Iteration:   477charge 0 multiplicity 1
 C        -0.019363        -0.407524        -0.258848
 C         1.181234         0.439254        -0.107272
 C         1.883402         0.818681         1.268177
 C         3.290250         0.830238         0.635292
 O         4.323679         0.235605         1.383286
 C         3.676270         2.116685         0.046320
 O         2.827537         2.402698        -1.021595
 C         2.055185         1.175133        -1.206607
 C         2.658410         0.052776        -0.483581
 H         0.128535        -1.423031         0.256664
 H        -0.880948        -0.006573         0.388069
 H        -0.313781        -0.746686        -1.253948
 H         1.458907         1.726802         1.724129
 H         1.954384        -0.101846         1.888787
 H         4.714157         0.861559         2.065826
 H         3.562904         2.980575         0.766836
 H         4.764124         1.983742        -0.267976
 H         1.794319         1.133608        -2.283726
 H         3.076273        -0.844144        -0.874874
