19
Iteration:  3916charge 0 multiplicity 1
 C         0.262160        -0.591938        -0.751957
 C         1.267781         0.239572        -0.151018
 C         1.782407         0.623980         1.299906
 C         3.249563         0.819289         0.777915
 O         4.403668         0.284894         1.384481
 C         3.544187         2.343849         0.436860
 O         2.688277         2.534611        -0.882177
 C         2.019483         1.276925        -1.153092
 C         2.722711         0.164864        -0.581922
 H         0.327146        -1.653880        -0.343821
 H        -0.717828        -0.267146        -0.645637
 H         0.394970        -0.598482        -1.883711
 H         1.242832         1.464696         1.850049
 H         1.667549        -0.334022         1.880505
 H         4.378555        -0.669653         1.322502
 H         3.156743         3.001573         1.267748
 H         4.544545         2.627509         0.277737
 H         1.617828         1.532289        -2.168523
 H         3.122838        -0.643212        -1.178996
