19
Iteration:  4006
 C         0.167240        -0.443484        -0.695887
 C         1.488396         0.180645        -0.209650
 C         1.834209         0.579043         1.210193
 C         3.262207         0.853797         0.719795
 O         4.301731         0.300963         1.453886
 C         3.537728         2.243604         0.213958
 O         2.448412         2.527270        -0.590566
 C         2.084713         1.258685        -1.174951
 C         2.916172         0.137018        -0.699200
 H        -0.037649        -1.368971        -0.167626
 H        -0.659220         0.297855        -0.521226
 H         0.114329        -0.567878        -1.790507
 H         1.317844         1.445077         1.644543
 H         1.697414        -0.328147         1.914306
 H         4.026135        -0.276467         2.141080
 H         3.605469         2.823865         1.136449
 H         4.520696         2.311973        -0.230140
 H         1.715925         1.384829        -2.172740
 H         3.588451        -0.599853        -1.200595
