19
Iteration:  4177charge 0 multiplicity 1
 C         0.248421        -0.573059        -0.696138
 C         1.349859         0.362388        -0.241573
 C         1.742063         0.622729         1.215664
 C         3.209277         0.787866         0.742601
 O         4.424726         0.267470         1.391128
 C         3.550577         2.278728         0.322899
 O         2.491127         2.540064        -0.573305
 C         2.092160         1.310217        -1.220049
 C         2.818345         0.156096        -0.640847
 H         0.170930        -1.478588        -0.005424
 H        -0.702678        -0.142794        -0.704977
 H         0.543244        -0.906377        -1.727043
 H         1.131712         1.430370         1.731360
 H         1.839407        -0.257271         1.791389
 H         4.472842        -0.741908         1.412638
 H         3.579628         2.956875         1.196243
 H         4.466732         2.420770        -0.298718
 H         1.828904         1.321416        -2.258669
 H         3.264334        -0.768119        -1.070747
