19
Iteration:  1968
 C         0.102522        -0.386061        -0.646065
 C         1.462007         0.237603        -0.211243
 C         1.843744         0.593844         1.205586
 C         3.312236         0.882173         0.665264
 O         4.387964         0.388613         1.441982
 C         3.609223         2.225012         0.117369
 O         2.400493         2.461492        -0.529086
 C         2.023909         1.196879        -1.167739
 C         2.886832         0.044797        -0.592715
 H        -0.055319        -1.403412        -0.365002
 H        -0.658294         0.238896        -0.076555
 H        -0.154163        -0.080066        -1.686855
 H         1.377282         1.392004         1.845244
 H         1.778434        -0.366177         1.740556
 H         4.376802        -0.552929         1.449142
 H         3.612316         3.018885         0.916432
 H         4.571899         2.171845        -0.521808
 H         1.676957         1.237592        -2.241572
 H         3.353372        -0.702064        -1.166865
