19
Iteration:  4813charge 0 multiplicity 1
 C         0.210794        -0.613685        -0.674931
 C         1.353841         0.303686        -0.308049
 C         1.736660         0.595733         1.248768
 C         3.206989         0.777453         0.754232
 O         4.376418         0.292626         1.342885
 C         3.542859         2.241725         0.331844
 O         2.624988         2.619264        -0.668492
 C         2.033167         1.329154        -1.116602
 C         2.840794         0.115391        -0.618229
 H         0.034886        -1.610760        -0.162870
 H        -0.686329        -0.011527        -0.569105
 H         0.357899        -0.778648        -1.754300
 H         1.255097         1.519528         1.685398
 H         1.625642        -0.317244         1.781019
 H         4.275895        -0.434774         2.005280
 H         3.474972         2.966383         1.185602
 H         4.568116         2.335377         0.034367
 H         1.986350         1.414871        -2.174558
 H         3.364515        -0.575671        -1.290477
