19
Iteration:  2371
 C         0.135499        -0.401140        -0.684306
 C         1.391777         0.214938        -0.124680
 C         1.890947         0.652753         1.301229
 C         3.260740         0.808144         0.665992
 O         4.451581         0.354810         1.322758
 C         3.470036         2.208688         0.294419
 O         2.533684         2.487426        -0.703143
 C         2.023372         1.213385        -1.065823
 C         2.830288         0.100365        -0.655764
 H        -0.019504        -1.559621        -0.463246
 H        -0.876012         0.093219        -0.392751
 H         0.107130        -0.456228        -1.754299
 H         1.410136         1.601918         1.765998
 H         1.831345        -0.140676         2.098638
 H         4.255919        -0.530087         1.621948
 H         3.267545         2.976628         1.002695
 H         4.403738         2.367133        -0.156768
 H         1.785475         1.190407        -2.164297
 H         3.423332        -0.497587        -1.306917
