19
Iteration:  1365charge 0 multiplicity 1
 C         0.127651        -0.411647        -0.618368
 C         1.408585         0.250003        -0.128235
 C         1.896545         0.689666         1.230164
 C         3.275700         0.795066         0.635509
 O         4.376517         0.287334         1.429648
 C         3.524138         2.237332         0.215697
 O         2.489472         2.484037        -0.646693
 C         2.054453         1.237509        -1.195302
 C         2.856871         0.095201        -0.673850
 H        -0.155866        -1.403290        -0.243267
 H        -0.807751         0.206498        -0.624307
 H         0.417310        -0.653678        -1.625619
 H         1.476447         1.592764         1.832312
 H         1.950279        -0.302629         1.882049
 H         3.952066         0.030560         2.235572
 H         3.464965         2.947375         1.068282
 H         4.535079         2.251470        -0.224951
 H         1.736227         1.160790        -2.212573
 H         3.230106        -0.803821        -1.266075
