19
Iteration:  1657
 C         0.194916        -0.520747        -0.594148
 C         1.347630         0.274723        -0.221594
 C         1.858676         0.566377         1.210535
 C         3.273810         0.734851         0.641379
 O         4.223809         0.311883         1.566394
 C         3.622510         2.271242         0.194135
 O         2.504651         2.548643        -0.647318
 C         2.071889         1.352193        -1.141835
 C         2.829971         0.113487        -0.728786
 H         0.212288        -1.375736         0.108002
 H        -0.783988         0.035985        -0.489492
 H         0.187770        -0.918811        -1.566192
 H         1.430297         1.481854         1.824688
 H         1.967861        -0.367559         1.839597
 H         4.919753        -0.128247         1.105199
 H         3.799811         3.046437         1.017538
 H         4.589114         2.079763        -0.303286
 H         1.699796         1.504785        -2.180035
 H         3.298341        -0.544048        -1.433053
