19
Iteration:  4996
 C         0.131906        -0.534635        -0.679937
 C         1.345916         0.249610        -0.356532
 C         1.870543         0.639449         1.031592
 C         3.411872         0.828722         0.647361
 O         4.332257         0.301913         1.587908
 C         3.607126         2.223536         0.326003
 O         2.393801         2.503729        -0.479981
 C         2.064401         1.275015        -1.148429
 C         2.919359         0.126551        -0.798919
 H         0.023655        -1.350077        -0.062534
 H        -0.693286         0.083708        -0.185260
 H        -0.113724        -0.835538        -1.749707
 H         1.531932         1.620224         1.410050
 H         1.802087        -0.018979         1.959079
 H         3.815440        -0.082809         2.378123
 H         3.514032         2.868829         1.226054
 H         4.555345         2.531988        -0.257462
 H         1.851270         1.315580        -2.235489
 H         3.264502        -0.639404        -1.523443
