19
Iteration:   326
 C         0.070958        -0.326215        -0.129653
 C         1.374466         0.430356        -0.011856
 C         1.814488         0.907990         1.316828
 C         3.206473         0.804215         0.649894
 O         4.288936         0.176256         1.314108
 C         3.658727         2.190710         0.076416
 O         2.758992         2.324610        -1.094701
 C         2.103807         1.179028        -1.221119
 C         2.736854        -0.016064        -0.616895
 H        -0.034735        -1.222364         0.524303
 H        -0.749183         0.332701         0.141391
 H        -0.140074        -0.539551        -1.185275
 H         1.507069         1.859811         1.737252
 H         1.658653         0.314144         2.251143
 H         3.836706        -0.300955         2.078826
 H         3.485623         3.073301         0.687669
 H         4.622862         2.185408        -0.368143
 H         1.599099         1.236157        -2.293994
 H         3.247969        -0.918225        -0.932174
