19
Iteration:   417charge 0 multiplicity 1
 C        -0.095502        -0.254266        -0.299573
 C         1.322414         0.382142        -0.071170
 C         1.901525         0.916571         1.246383
 C         3.430106         0.844936         0.592263
 O         4.336855         0.198134         1.506096
 C         3.687626         2.288194         0.014257
 O         2.595595         2.346406        -0.899999
 C         2.022841         1.018117        -1.230544
 C         2.761963        -0.050188        -0.564273
 H        -0.234470        -1.068873         0.430579
 H        -0.915672         0.504075        -0.297766
 H        -0.151562        -0.619582        -1.358962
 H         1.602838         1.839011         1.745261
 H         1.964254         0.285252         2.115449
 H         4.508601        -0.651154         1.079049
 H         3.592783         3.071299         0.750550
 H         4.672558         2.383428        -0.376591
 H         1.756972         0.847518        -2.218669
 H         3.293767        -0.971703        -0.882283
