19
Iteration:  3007
 C         0.230169        -0.510749        -0.640461
 C         1.312824         0.316501        -0.207608
 C         1.836657         0.678404         1.169528
 C         3.360155         0.730829         0.735020
 O         4.424429         0.225972         1.486082
 C         3.557788         2.232698         0.153741
 O         2.461156         2.555343        -0.707168
 C         2.011735         1.282779        -1.172506
 C         2.821877         0.155882        -0.592928
 H         0.226778        -1.618387        -0.319026
 H        -0.780920        -0.131489        -0.246600
 H         0.127914        -0.365258        -1.734658
 H         1.479031         1.493961         1.827675
 H         1.667501        -0.203748         1.935889
 H         4.051767        -0.161843         2.264260
 H         3.593945         2.874169         1.131942
 H         4.537359         2.411535        -0.409233
 H         1.508944         1.412643        -2.144693
 H         3.227279        -0.762540        -1.171815
