19
Iteration:  2818charge 0 multiplicity 1
 C         0.036152        -0.471812        -0.499098
 C         1.503494         0.144124        -0.250865
 C         1.759265         0.752960         1.133005
 C         3.387839         0.821735         0.660769
 O         4.358569         0.207789         1.485751
 C         3.642788         2.288945         0.273568
 O         2.379262         2.525228        -0.655960
 C         2.082324         1.211310        -1.172103
 C         2.951656         0.155019        -0.724925
 H        -0.061367        -1.441213        -0.035882
 H        -0.607165         0.127613         0.052598
 H        -0.298305        -0.438975        -1.495064
 H         1.164643         1.640131         1.301324
 H         1.551915         0.039235         1.989481
 H         4.051340        -0.712695         1.720052
 H         3.552306         3.143928         1.011373
 H         4.559693         2.365359        -0.289476
 H         1.857343         1.330982        -2.252929
 H         3.446281        -0.528554        -1.384138
