19
Iteration:  2185
 C         0.172144        -0.540344        -0.376969
 C         1.378700         0.357303        -0.309689
 C         1.860693         0.611209         1.185302
 C         3.222324         0.745358         0.727551
 O         4.431589         0.147078         1.346176
 C         3.381272         2.354373         0.438083
 O         2.549998         2.554154        -0.798846
 C         2.109295         1.313185        -1.263829
 C         2.888790         0.167959        -0.729491
 H         0.280075        -1.271028         0.477664
 H        -0.667775         0.151724        -0.033791
 H        -0.041969        -1.029551        -1.295853
 H         1.490502         1.507730         1.754118
 H         1.695072        -0.184099         1.890856
 H         4.069489        -0.731919         1.612815
 H         2.897939         2.958105         1.223477
 H         4.477667         2.548720         0.069867
 H         1.706083         1.339890        -2.277676
 H         3.614582        -0.531385        -1.306780
