19
Iteration:  2895
 C         0.131705        -0.572844        -0.641698
 C         1.295627         0.307718        -0.123243
 C         1.747645         0.636811         1.347852
 C         3.255053         0.807558         0.738511
 O         4.458637         0.274373         1.302684
 C         3.497235         2.294392         0.316840
 O         2.711980         2.517144        -0.824766
 C         2.005345         1.273243        -1.134800
 C         2.774107         0.151941        -0.633312
 H         0.112955        -1.643536        -0.155150
 H        -0.786831        -0.031764        -0.679308
 H         0.396005        -0.695211        -1.674278
 H         1.338008         1.542491         1.828315
 H         1.731210        -0.284954         2.055939
 H         4.504573        -0.692305         1.546354
 H         3.206363         3.074721         1.150973
 H         4.585339         2.581154         0.140818
 H         1.895084         1.450324        -2.218836
 H         3.190701        -0.662464        -1.151910
