19
Iteration:  4547charge 0 multiplicity 1
 C         0.190404        -0.499515        -0.813456
 C         1.324931         0.286035        -0.245370
 C         1.810420         0.611556         1.235756
 C         3.332965         0.870645         0.772493
 O         4.410101         0.329495         1.445876
 C         3.545187         2.219090         0.283145
 O         2.503583         2.547297        -0.563595
 C         2.045298         1.231933        -1.189564
 C         2.797461         0.120937        -0.659807
 H         0.203941        -1.426871        -0.321694
 H        -0.850503        -0.111290        -0.621605
 H         0.351944        -0.730009        -1.903471
 H         1.383248         1.301531         1.986732
 H         1.863742        -0.396349         1.676993
 H         4.048641        -0.518099         1.875037
 H         3.521585         2.938199         1.098948
 H         4.533272         2.136010        -0.215844
 H         1.828201         1.512911        -2.184397
 H         3.316878        -0.728396        -1.163813
