19
Iteration:  3768charge 0 multiplicity 1
 C         0.301791        -0.575426        -0.731756
 C         1.253291         0.340862        -0.226210
 C         1.751351         0.575345         1.265696
 C         3.278892         0.865113         0.801369
 O         4.387904         0.207325         1.378617
 C         3.505187         2.448175         0.363547
 O         2.656985         2.517377        -0.777139
 C         2.010732         1.240076        -1.147564
 C         2.759395         0.139003        -0.567772
 H         0.397380        -1.578627        -0.372198
 H        -0.877575        -0.340659        -0.566364
 H         0.467667        -0.624749        -1.823533
 H         1.570071         1.605465         1.836639
 H         1.738825        -0.274941         1.996307
 H         4.237300        -0.692861         1.165080
 H         3.197166         2.988073         1.235634
 H         4.514118         2.606440         0.010906
 H         1.833705         1.120821        -2.239604
 H         3.256339        -0.710582        -1.016663
