19
Iteration:  1953charge 0 multiplicity 1
 C         0.079382        -0.369648        -0.552329
 C         1.407533         0.189161        -0.230554
 C         1.832886         0.665210         1.198828
 C         3.343904         0.834077         0.683796
 O         4.373856         0.271062         1.429737
 C         3.543875         2.333990         0.248841
 O         2.387763         2.475722        -0.646348
 C         2.135321         1.194450        -1.165770
 C         2.970907         0.089253        -0.690383
 H        -0.087932        -1.517940        -0.340579
 H        -0.673336         0.102169         0.213875
 H        -0.301282        -0.342904        -1.562081
 H         1.222653         1.530244         1.516322
 H         1.846789        -0.051621         2.011716
 H         4.358360        -0.731509         1.314182
 H         3.510528         3.100493         1.098182
 H         4.386314         2.352016        -0.465846
 H         1.658388         1.229725        -2.126980
 H         3.510963        -0.771073        -1.163777
