19
Iteration:  2744charge 0 multiplicity 1
 C         0.154959        -0.569857        -0.573057
 C         1.348372         0.355607        -0.175654
 C         1.877263         0.508230         1.311676
 C         3.277956         0.803363         0.682087
 O         4.352860         0.356815         1.373051
 C         3.549260         2.278342         0.321304
 O         2.714280         2.523312        -0.885838
 C         2.018753         1.259617        -1.087973
 C         2.710798         0.146529        -0.657952
 H        -0.063071        -1.371331         0.103492
 H        -0.762580         0.244234        -0.596173
 H         0.300274        -0.901148        -1.614150
 H         1.416070         1.293900         1.896823
 H         1.990816        -0.419455         1.898794
 H         4.008457        -0.396729         1.866349
 H         3.080208         2.906181         1.143143
 H         4.589388         2.497736         0.096011
 H         1.549786         1.306602        -2.099454
 H         2.958216        -0.534013        -1.407018
