19
Iteration:  3262charge 0 multiplicity 1
 C         0.114670        -0.513421        -0.795055
 C         1.324099         0.244535        -0.212847
 C         1.856581         0.657839         1.198822
 C         3.323863         0.841660         0.712644
 O         4.455363         0.340076         1.417258
 C         3.553072         2.251545         0.188778
 O         2.428463         2.503819        -0.500012
 C         2.057389         1.223367        -1.085156
 C         2.839106         0.101534        -0.629667
 H         0.028107        -1.506027        -0.420764
 H        -0.855937         0.061363        -0.547942
 H         0.067918        -0.382817        -1.939970
 H         1.300916         1.491478         1.549680
 H         1.837322        -0.043893         2.040279
 H         4.382851        -0.648862         1.546182
 H         3.759097         2.968132         1.087729
 H         4.536597         2.357326        -0.311087
 H         1.909590         1.333582        -2.140371
 H         3.444893        -0.729811        -1.124213
