19
Iteration:  2468
 C         0.243800        -0.593272        -0.422595
 C         1.362092         0.369639        -0.220571
 C         1.858501         0.620323         1.273402
 C         3.236736         0.804128         0.643781
 O         4.381508         0.085982         1.343796
 C         3.376187         2.274959         0.385256
 O         2.621860         2.618173        -0.849361
 C         2.010935         1.296946        -1.221086
 C         2.867452         0.284862        -0.675250
 H         0.442339        -1.401645         0.186656
 H        -0.764120        -0.241490        -0.117135
 H         0.153462        -1.073930        -1.322362
 H         1.490353         1.511443         1.780707
 H         1.564982        -0.226082         1.898587
 H         4.122451        -0.776256         1.651786
 H         3.020803         2.836030         1.242771
 H         4.399083         2.593747         0.081468
 H         2.016640         1.342562        -2.333499
 H         3.415264        -0.431055        -1.210696
