19
Iteration:  1143
 C         0.148438        -0.489051        -0.476461
 C         1.330607         0.320549        -0.204441
 C         1.838047         0.746708         1.174651
 C         3.300187         0.794773         0.638704
 O         4.334840         0.256750         1.436669
 C         3.608880         2.263909         0.285568
 O         2.578976         2.497921        -0.770248
 C         2.044388         1.254855        -1.190240
 C         2.793799         0.026118        -0.613677
 H        -0.046128        -1.148149         0.371263
 H        -0.831003         0.092697        -0.429048
 H         0.191284        -0.921663        -1.443318
 H         1.290921         1.592256         1.682491
 H         1.924026        -0.119139         1.862979
 H         4.515842        -0.639496         1.201055
 H         3.325129         3.080901         0.985936
 H         4.618645         2.455396        -0.107376
 H         1.653234         1.456167        -2.217261
 H         3.346206        -0.852530        -1.004942
