19
Iteration:  4188charge 0 multiplicity 1
 C         0.324047        -0.548049        -0.637746
 C         1.394626         0.331376        -0.210229
 C         1.772175         0.619527         1.249318
 C         3.252310         0.830205         0.703346
 O         4.294050         0.227157         1.341528
 C         3.444396         2.253134         0.365164
 O         2.532271         2.577210        -0.668938
 C         2.140894         1.318748        -1.148065
 C         2.823617         0.124802        -0.674717
 H         0.366213        -1.454745         0.062465
 H        -0.636179        -0.156673        -0.677943
 H         0.540264        -1.007721        -1.643899
 H         1.307726         1.497448         1.825280
 H         1.577350        -0.256221         1.823585
 H         4.239018        -0.703133         1.032964
 H         3.286310         3.030558         1.134739
 H         4.533520         2.225384         0.057589
 H         1.609663         1.505959        -2.052462
 H         3.507871        -0.614846        -1.151284
