19
Iteration:  1831charge 0 multiplicity 1
 C         0.096113        -0.369531        -0.568475
 C         1.403336         0.228144        -0.241235
 C         1.858071         0.731459         1.153082
 C         3.335120         0.790918         0.667634
 O         4.402588         0.289020         1.484901
 C         3.544252         2.284266         0.170213
 O         2.339103         2.457413        -0.526190
 C         2.117969         1.144452        -1.245609
 C         2.984507         0.070320        -0.647619
 H        -0.324684        -1.303548        -0.042991
 H        -0.711350         0.359499        -0.246662
 H        -0.029499        -0.530399        -1.695780
 H         1.529388         1.725193         1.452672
 H         1.763399         0.102503         2.023429
 H         4.095570        -0.669018         1.657095
 H         3.550478         2.965622         1.069615
 H         4.405593         2.222234        -0.546005
 H         1.573875         1.188026        -2.199075
 H         3.590433        -0.482115        -1.324150
