19
Iteration:  3863charge 0 multiplicity 1
 C         0.172584        -0.434045        -0.573853
 C         1.468504         0.163591        -0.309681
 C         1.769507         0.593956         1.108583
 C         3.264317         0.812037         0.704203
 O         4.349275         0.293133         1.559357
 C         3.528362         2.234135         0.217761
 O         2.444237         2.561851        -0.628015
 C         2.039275         1.254781        -1.148785
 C         3.013177         0.150385        -0.727379
 H         0.000448        -1.269134         0.097726
 H        -0.520577         0.332164        -0.245776
 H        -0.137916        -0.647871        -1.627077
 H         1.037675         1.289767         1.445254
 H         1.665513        -0.327612         1.726035
 H         3.936916        -0.471521         1.972918
 H         3.436297         2.953510         1.069172
 H         4.589092         2.219993        -0.230884
 H         1.852664         1.487208        -2.212311
 H         3.757192        -0.458119        -1.208201
