19
Iteration:   412charge 0 multiplicity 1
 C        -0.084231        -0.232658        -0.321038
 C         1.316224         0.364235        -0.054987
 C         1.864379         0.905668         1.242479
 C         3.409309         0.871192         0.629593
 O         4.356728         0.186705         1.509342
 C         3.677420         2.222748        -0.046036
 O         2.572140         2.372823        -0.873329
 C         2.057407         1.037533        -1.200134
 C         2.800580        -0.073072        -0.553099
 H        -0.258813        -1.025077         0.396317
 H        -0.842240         0.552722        -0.330042
 H        -0.168680        -0.628813        -1.318234
 H         1.511186         1.948051         1.521831
 H         1.888484         0.298020         2.188348
 H         4.713679        -0.583718         1.020895
 H         3.647492         3.076069         0.693281
 H         4.733730         2.456285        -0.510516
 H         1.548598         0.817477        -2.227935
 H         3.252946        -0.935509        -1.034629
