19
Iteration:   915charge 0 multiplicity 1
 C         0.135438        -0.477213        -0.384792
 C         1.370439         0.377954        -0.141285
 C         1.880164         0.804236         1.285499
 C         3.279376         0.780048         0.669958
 O         4.216257         0.191008         1.501388
 C         3.619288         2.159378         0.185814
 O         2.655796         2.472283        -0.894886
 C         2.026729         1.235096        -1.228011
 C         2.757064         0.108604        -0.683290
 H         0.204047        -1.326855         0.366738
 H        -0.825664         0.100140        -0.114214
 H        -0.030288        -0.848041        -1.400873
 H         1.471280         1.711006         1.839624
 H         1.665079        -0.044055         2.015249
 H         5.097129         0.463619         1.069588
 H         3.626768         3.088392         0.756302
 H         4.543407         1.999801        -0.374503
 H         1.609800         1.242755        -2.190849
 H         3.240049        -0.776844        -1.184093
