19
Iteration:   301
 C        -0.050546        -0.340730        -0.143898
 C         1.315085         0.454800        -0.114622
 C         1.872974         1.033154         1.154778
 C         3.316189         0.831972         0.670269
 O         4.340326         0.121883         1.408924
 C         3.669974         2.195387         0.102252
 O         2.695662         2.386370        -1.037985
 C         2.071555         1.058494        -1.272107
 C         2.749804         0.001915        -0.446476
 H         0.097657        -1.214947         0.434073
 H        -0.827403         0.212641         0.311347
 H        -0.482001        -0.582786        -1.091418
 H         1.597533         1.871756         1.783140
 H         1.679059         0.248585         1.918879
 H         4.365651        -0.674822         0.850461
 H         3.457539         3.034012         0.800574
 H         4.660914         2.347970        -0.323643
 H         1.703259         0.824763        -2.298598
 H         3.218400        -0.938232        -0.797639
