19
Iteration:    91charge 0 multiplicity 1
 C        -0.239454        -0.229279        -0.321419
 C         1.251194         0.333239        -0.134910
 C         1.940623         1.055147         1.211573
 C         3.412023         0.844854         0.642657
 O         4.528178         0.211401         1.447956
 C         3.806963         2.157803        -0.139697
 O         2.563668         2.338174        -0.888805
 C         1.996874         1.030990        -1.180772
 C         2.700444        -0.065166        -0.368792
 H        -0.403911        -1.106881         0.250273
 H        -0.899105         0.597602         0.042684
 H        -0.506080        -0.437914        -1.342692
 H         1.655372         1.980989         1.656040
 H         1.802161         0.316842         2.001286
 H         4.107046        -0.314946         2.142727
 H         3.949124         3.002448         0.574633
 H         4.690532         2.023231        -0.742953
 H         1.930335         0.655548        -2.312990
 H         3.168504        -0.964048        -0.790989
