19
Iteration:  4496
 C         0.099762        -0.532830        -0.533655
 C         1.406626         0.262517        -0.285166
 C         1.781933         0.439540         1.149235
 C         3.257711         0.866722         0.768754
 O         4.326458         0.210516         1.408457
 C         3.452046         2.386590         0.466498
 O         2.587313         2.518435        -0.783343
 C         2.135578         1.341431        -1.262032
 C         2.952546         0.253862        -0.663426
 H        -0.003288        -1.357954         0.314328
 H        -0.797875         0.055983        -0.572791
 H         0.043926        -0.998064        -1.566988
 H         1.362359         1.106584         1.982512
 H         1.879259        -0.508633         1.688017
 H         4.218019        -0.767830         1.321318
 H         2.977242         3.027219         1.254662
 H         4.485595         2.760735         0.247481
 H         1.928994         1.433919        -2.321805
 H         3.634236        -0.538510        -1.100333
