19
Iteration:  4365
 C         0.164215        -0.714544        -0.562123
 C         1.364297         0.298187        -0.255343
 C         1.850547         0.665611         1.161424
 C         3.273786         0.777859         0.646965
 O         4.297765         0.207382         1.453333
 C         3.477525         2.361741         0.479099
 O         2.602652         2.589634        -0.657216
 C         2.166947         1.440474        -1.301813
 C         2.807640         0.130343        -0.734875
 H         0.091069        -1.653611         0.123146
 H        -0.746935        -0.253985        -0.316694
 H         0.234355        -1.092081        -1.604189
 H         1.349972         1.503127         1.790568
 H         1.780191        -0.334695         1.574244
 H         4.415379        -0.738887         1.318758
 H         3.001335         2.787071         1.388685
 H         4.477755         2.743163         0.351769
 H         1.786195         1.483346        -2.320627
 H         3.327604        -0.617386        -1.308501
