19
Iteration:    42
 C         0.004205        -0.292538        -0.021956
 C         1.332027         0.445636        -0.037242
 C         1.838887         0.900451         1.308202
 C         3.277597         0.783291         0.718559
 O         4.328552         0.239382         1.509781
 C         3.618629         2.068389        -0.010911
 O         2.878015         2.307468        -1.209097
 C         2.007215         1.222004        -1.298769
 C         2.618819        -0.001270        -0.626705
 H        -0.091938        -0.902936         0.936402
 H        -0.752247         0.454241        -0.238320
 H        -0.171590        -1.085568        -0.795084
 H         1.453969         1.904411         1.790185
 H         1.662144         0.123761         2.115166
 H         5.028577         0.073414         0.809695
 H         3.554827         2.897742         0.684268
 H         4.726923         2.006244        -0.244351
 H         1.458539         1.259072        -2.145383
 H         2.844836        -0.914893        -1.175208
