19
Iteration:  1224
 C         0.108969        -0.435826        -0.552466
 C         1.378582         0.287646        -0.219829
 C         1.842686         0.580505         1.242468
 C         3.316256         0.682622         0.723000
 O         4.337768         0.388866         1.616857
 C         3.575463         2.116338         0.133314
 O         2.554568         2.557651        -0.744111
 C         2.000813         1.308730        -1.183727
 C         2.844783         0.097813        -0.675402
 H         0.105195        -1.549423        -0.351834
 H        -0.765400         0.207549        -0.178710
 H        -0.087562        -0.492493        -1.706083
 H         1.352021         1.443855         1.676544
 H         1.771942        -0.284685         1.941973
 H         5.170130         0.307353         1.125626
 H         3.722515         2.944896         0.863758
 H         4.582478         1.928426        -0.452955
 H         1.414753         1.483873        -2.063589
 H         3.024857        -0.701264        -1.479372
