19
Iteration:  3128
 C         0.073140        -0.380248        -0.708806
 C         1.394282         0.139804        -0.190832
 C         1.870126         0.652428         1.227346
 C         3.357756         0.827101         0.697887
 O         4.372354         0.286038         1.534848
 C         3.532459         2.247745         0.163699
 O         2.398850         2.492973        -0.594627
 C         2.013853         1.252530        -1.142114
 C         2.930434         0.118048        -0.636160
 H        -0.077218        -1.369639        -0.372792
 H        -0.736812         0.324989        -0.603580
 H         0.007301        -0.534083        -1.802096
 H         1.338919         1.455038         1.648230
 H         2.017129        -0.074169         2.061432
 H         5.052122        -0.219901         1.025773
 H         3.835655         3.004820         0.937171
 H         4.417009         2.184464        -0.422695
 H         1.683820         1.074101        -2.162460
 H         3.430565        -0.515172        -1.333350
