19
Iteration:  3141charge 0 multiplicity 1
 C         0.148132        -0.436727        -0.737085
 C         1.387382         0.291086        -0.192376
 C         1.898765         0.653507         1.251036
 C         3.322913         0.844095         0.700401
 O         4.387337         0.296922         1.474883
 C         3.588990         2.279540         0.198307
 O         2.382731         2.483180        -0.618158
 C         2.049938         1.170168        -1.095739
 C         2.834582         0.043626        -0.611090
 H        -0.124882        -1.344074        -0.339100
 H        -0.701943         0.192207        -0.348061
 H         0.269432        -0.406448        -1.875405
 H         1.509087         1.589743         1.709337
 H         1.717330        -0.278201         1.853751
 H         4.572633        -0.558965         1.010341
 H         3.399007         3.044846         0.973486
 H         4.491746         2.456035        -0.379344
 H         1.825901         1.329830        -2.168067
 H         3.329315        -0.567507        -1.356546
