19
Iteration:  2812charge 0 multiplicity 1
 C         0.097257        -0.498603        -0.532863
 C         1.417238         0.214877        -0.217583
 C         1.754084         0.719693         1.162949
 C         3.356206         0.853410         0.707107
 O         4.354345         0.227615         1.426382
 C         3.643124         2.272930         0.287652
 O         2.419194         2.533318        -0.658330
 C         2.114057         1.192070        -1.217416
 C         2.931278         0.127875        -0.684848
 H        -0.073041        -1.467832         0.036817
 H        -0.644639         0.204405         0.123005
 H        -0.319827        -0.459883        -1.612009
 H         1.216937         1.700619         1.326933
 H         1.683417         0.027105         1.969104
 H         4.095643        -0.678891         1.519231
 H         3.446844         2.933890         1.109424
 H         4.566440         2.362123        -0.368047
 H         1.685080         1.217170        -2.208532
 H         3.592089        -0.517357        -1.307246
