19
Iteration:   796
 C        -0.003743        -0.315857        -0.385313
 C         1.329783         0.353111        -0.140906
 C         1.859387         0.656578         1.198546
 C         3.322431         0.720837         0.655089
 O         4.384508         0.314847         1.536758
 C         3.711476         2.192051        -0.023435
 O         2.558866         2.462956        -0.818014
 C         2.069213         1.174052        -1.156491
 C         2.773501        -0.011619        -0.632321
 H        -0.465202        -0.921453         0.388007
 H        -0.732545         0.434234        -0.510442
 H        -0.095107        -0.820637        -1.321884
 H         1.441725         1.507199         1.709672
 H         1.678048        -0.197243         1.847766
 H         4.427898         0.889398         2.339082
 H         3.696795         3.004574         0.691499
 H         4.647563         2.021933        -0.571841
 H         1.641942         1.241647        -2.158280
 H         3.305251        -0.758384        -1.163430
