19
Iteration:  1238charge 0 multiplicity 1
 C         0.127151        -0.407197        -0.610959
 C         1.403872         0.244921        -0.204632
 C         1.790400         0.579042         1.209285
 C         3.283492         0.811753         0.678300
 O         4.379121         0.445060         1.600131
 C         3.687102         2.133649         0.088685
 O         2.489834         2.516515        -0.613791
 C         1.989991         1.289026        -1.149109
 C         2.780794         0.037689        -0.719827
 H         0.065108        -1.480482        -0.239200
 H        -0.691503         0.067807        -0.042364
 H        -0.119014        -0.239453        -1.741896
 H         1.331190         1.455650         1.746457
 H         1.644746        -0.271575         1.870108
 H         4.810180        -0.385103         1.278281
 H         3.971513         2.901040         0.820097
 H         4.536482         1.986783        -0.697172
 H         1.801329         1.270210        -2.231321
 H         3.368636        -0.864178        -1.098075
