19
Iteration:  2887
 C         0.115534        -0.569381        -0.647868
 C         1.334662         0.313228        -0.181971
 C         1.728561         0.611416         1.314869
 C         3.211260         0.780059         0.704429
 O         4.496027         0.310296         1.342991
 C         3.584636         2.245089         0.373498
 O         2.667578         2.559916        -0.889578
 C         1.984608         1.296632        -1.082000
 C         2.787655         0.162961        -0.607271
 H         0.177107        -1.398458        -0.076073
 H        -0.945946        -0.213991        -0.510892
 H         0.291050        -0.732312        -1.694609
 H         1.372396         1.402735         1.957229
 H         1.734043        -0.294305         1.957198
 H         4.266656        -0.571112         1.780411
 H         3.385631         2.876694         1.243893
 H         4.551529         2.389217        -0.038905
 H         1.725559         1.228952        -2.150352
 H         3.247679        -0.597270        -1.278139
