19
Iteration:  4093charge 0 multiplicity 1
 C         0.037458        -0.550456        -0.556461
 C         1.373989         0.325419        -0.298361
 C         1.824947         0.552810         1.189409
 C         3.288549         0.785795         0.719627
 O         4.437102         0.230985         1.440157
 C         3.424917         2.319194         0.477015
 O         2.546743         2.579084        -0.797718
 C         2.160250         1.278373        -1.259773
 C         2.936862         0.214664        -0.653694
 H         0.057405        -1.559473        -0.090051
 H        -0.805744         0.060941        -0.073710
 H        -0.299531        -0.750775        -1.599007
 H         1.305635         1.301221         1.793352
 H         1.511721        -0.452796         1.686857
 H         4.201252        -0.680276         1.527503
 H         3.179371         2.882059         1.414716
 H         4.316703         2.636499        -0.017720
 H         1.998915         1.127053        -2.320899
 H         3.617879        -0.541975        -1.082158
