19
Iteration:  2997
 C         0.160753        -0.516525        -0.624327
 C         1.403899         0.317266        -0.242909
 C         1.856244         0.666145         1.207166
 C         3.344020         0.785610         0.679830
 O         4.420084         0.316034         1.560368
 C         3.595665         2.161295         0.174362
 O         2.468887         2.547465        -0.595233
 C         1.936018         1.268852        -1.210553
 C         2.838173         0.132246        -0.737536
 H         0.145904        -1.576774        -0.303097
 H        -0.747650         0.007655        -0.140109
 H         0.041113        -0.496145        -1.744461
 H         1.475559         1.590500         1.726006
 H         1.567802        -0.325450         1.721307
 H         4.042732        -0.179028         2.276985
 H         3.725123         2.913688         1.008926
 H         4.519208         2.051095        -0.454667
 H         1.685721         1.338636        -2.271090
 H         3.087834        -0.828195        -1.273638
