19
Iteration:  3426charge 0 multiplicity 1
 C         0.270754        -0.521115        -0.733791
 C         1.416262         0.273953        -0.268405
 C         1.845747         0.609339         1.213331
 C         3.274325         0.792025         0.645728
 O         4.375123         0.321458         1.424821
 C         3.572934         2.189143         0.270117
 O         2.446410         2.549575        -0.493811
 C         1.974966         1.275566        -1.173869
 C         2.828861         0.115219        -0.691304
 H         0.440701        -1.457469        -0.324429
 H        -0.696464        -0.079331        -0.384872
 H         0.138195        -0.426175        -1.849311
 H         1.281858         1.417735         1.663371
 H         1.588121        -0.303349         1.766447
 H         4.157317         0.339186         2.370215
 H         3.859053         2.684851         1.167514
 H         4.502604         2.265047        -0.308318
 H         1.326926         1.511442        -2.038837
 H         3.430690        -0.613212        -1.161897
