19
Iteration:   116charge 0 multiplicity 1
 C         0.006785        -0.154915        -0.263351
 C         1.374850         0.352183        -0.017328
 C         1.829853         0.987511         1.265376
 C         3.236209         0.769529         0.666676
 O         4.415820         0.341488         1.401405
 C         3.731368         1.932504        -0.137980
 O         2.640862         2.348386        -0.856265
 C         2.043573         1.088838        -1.162829
 C         2.673496        -0.105282        -0.624967
 H        -0.160599        -1.222982         0.115677
 H        -0.790460         0.425187         0.240130
 H        -0.122659        -0.121629        -1.370102
 H         1.569473         1.990744         1.449633
 H         1.592843         0.455399         2.175203
 H         4.428259         0.840970         2.215095
 H         4.062907         2.777565         0.510338
 H         4.557532         1.464342        -0.720811
 H         1.488029         0.974123        -2.027840
 H         3.099513        -0.992819        -1.088957
