19
Iteration:  3098charge 0 multiplicity 1
 C         0.164876        -0.410389        -0.528841
 C         1.435499         0.262725        -0.268674
 C         1.857775         0.575262         1.156491
 C         3.287317         0.761612         0.672358
 O         4.265104         0.271198         1.506108
 C         3.537920         2.250131         0.226531
 O         2.490315         2.530243        -0.621739
 C         2.038128         1.267359        -1.177360
 C         2.881387         0.072357        -0.721268
 H         0.069277        -1.215040         0.174749
 H        -0.790276         0.229986        -0.315333
 H         0.016058        -0.852593        -1.603674
 H         1.323084         1.379686         1.773233
 H         1.965954        -0.331009         1.849468
 H         5.123703         0.739629         1.703661
 H         3.615267         2.980774         1.076411
 H         4.536947         2.280374        -0.382639
 H         1.766737         1.241356        -2.268163
 H         3.224662        -0.545128        -1.528474
