19
Iteration:    67charge 0 multiplicity 1
 C        -0.013313        -0.156593        -0.169148
 C         1.337792         0.461286         0.006414
 C         1.920799         0.923746         1.301961
 C         3.331259         0.791449         0.617013
 O         4.291909         0.246313         1.415041
 C         3.667580         2.177344        -0.027454
 O         2.669301         2.288225        -1.078046
 C         2.047606         1.038366        -1.215533
 C         2.733235        -0.063247        -0.508136
 H        -0.182560        -0.934595         0.558288
 H        -0.819863         0.594424        -0.259742
 H        -0.032159        -0.719832        -1.105320
 H         1.677630         1.978702         1.634698
 H         1.763198         0.292612         2.196925
 H         4.366808        -0.733150         1.273323
 H         3.667664         2.984242         0.702087
 H         4.673428         2.113732        -0.455771
 H         1.483082         0.910407        -2.229589
 H         3.107986        -1.028365        -0.843350
