19
Iteration:  3276charge 0 multiplicity 1
 C         0.125492        -0.453174        -0.815393
 C         1.360494         0.252937        -0.185389
 C         1.747944         0.609017         1.286441
 C         3.356736         0.780834         0.644211
 O         4.469933         0.354104         1.398628
 C         3.653967         2.240319         0.251928
 O         2.395049         2.511339        -0.568196
 C         1.996650         1.258840        -1.107696
 C         2.915834         0.100461        -0.607720
 H         0.022413        -1.466097        -0.513213
 H        -0.825630         0.025696        -0.531418
 H         0.359050        -0.597786        -1.845449
 H         1.394467         1.535983         1.818044
 H         1.714408        -0.327553         1.782580
 H         4.181572        -0.194999         2.163207
 H         3.601783         2.934755         1.003308
 H         4.421910         2.196932        -0.469999
 H         1.484841         1.302993        -2.072233
 H         3.303065        -0.639095        -1.276162
