19
Iteration:   852charge 0 multiplicity 1
 C         0.074446        -0.349920        -0.391668
 C         1.374744         0.299241        -0.092428
 C         1.787055         0.834007         1.256099
 C         3.315689         0.784021         0.651717
 O         4.359939         0.250026         1.382709
 C         3.596708         2.274065         0.162059
 O         2.609558         2.428617        -0.917353
 C         2.040670         1.169613        -1.182606
 C         2.832758         0.007400        -0.530055
 H        -0.001499        -1.393701        -0.068227
 H        -0.698763         0.244137         0.017058
 H        -0.047243        -0.482781        -1.483872
 H         1.385500         1.800252         1.518312
 H         1.708526        -0.008891         1.944220
 H         4.163775        -0.731016         1.543022
 H         3.468835         3.087251         0.874457
 H         4.671861         2.180366        -0.097319
 H         1.592233         1.106567        -2.128628
 H         3.364868        -0.797298        -1.112103
