19
Iteration:  2595
 C         0.198828        -0.550474        -0.475750
 C         1.436634         0.266636        -0.218204
 C         1.779923         0.700548         1.234331
 C         3.304745         0.787516         0.664526
 O         4.406456         0.134578         1.333545
 C         3.468576         2.343509         0.383950
 O         2.603251         2.571382        -0.819795
 C         1.943087         1.307295        -1.171651
 C         2.843313         0.118073        -0.636759
 H         0.159941        -1.385439         0.324667
 H        -0.664202         0.026884        -0.450462
 H         0.171706        -0.927979        -1.561634
 H         1.491332         1.740497         1.432016
 H         1.701807        -0.183804         1.837092
 H         4.064569        -0.608137         1.871665
 H         3.112029         3.029738         1.142128
 H         4.476291         2.648408         0.208029
 H         1.647896         1.382938        -2.270825
 H         3.368069        -0.611753        -1.189584
