19
Iteration:  1149charge 0 multiplicity 1
 C         0.139672        -0.483621        -0.449572
 C         1.362436         0.321566        -0.175690
 C         1.805458         0.784176         1.200259
 C         3.292527         0.811002         0.696100
 O         4.365788         0.222065         1.376277
 C         3.531487         2.258294         0.311993
 O         2.587444         2.470793        -0.815021
 C         2.090727         1.254187        -1.196054
 C         2.818325         0.096543        -0.658268
 H         0.023951        -1.267413         0.333505
 H        -0.727058         0.163474        -0.514305
 H         0.069765        -1.075768        -1.422751
 H         1.358167         1.623138         1.741776
 H         1.615480        -0.073703         1.874118
 H         4.346473        -0.748109         1.314984
 H         3.289299         2.969828         1.098905
 H         4.578789         2.386658        -0.025561
 H         1.664095         1.291326        -2.176184
 H         3.426129        -0.772833        -1.019704
