19
Iteration:  4755
 C         0.270124        -0.486084        -0.582176
 C         1.408021         0.390245        -0.240537
 C         1.850460         0.605083         1.184860
 C         3.263854         0.771552         0.635569
 O         4.261818         0.218683         1.523547
 C         3.473729         2.218549         0.365178
 O         2.480789         2.514236        -0.678452
 C         2.051397         1.331242        -1.186186
 C         2.966043         0.162394        -0.787175
 H         0.449139        -1.467716        -0.225408
 H        -0.746573        -0.021478        -0.250604
 H         0.221353        -0.494262        -1.742434
 H         1.400343         1.460898         1.711037
 H         1.832728        -0.171749         1.971468
 H         4.090693        -0.706269         1.539063
 H         3.213810         2.810353         1.233763
 H         4.444399         2.394313        -0.076539
 H         1.687929         1.341214        -2.248360
 H         3.499038        -0.698748        -1.170355
