19
Iteration:  4593charge 0 multiplicity 1
 C         0.206948        -0.531061        -0.655486
 C         1.431498         0.241468        -0.306808
 C         1.908916         0.659756         1.188507
 C         3.303269         0.823354         0.645758
 O         4.235783         0.279853         1.559897
 C         3.674329         2.245819         0.311015
 O         2.411862         2.541866        -0.558059
 C         2.022818         1.305605        -1.208049
 C         2.900740         0.141225        -0.739839
 H         0.209335        -1.669134        -0.480094
 H        -0.659881        -0.223962        -0.131826
 H         0.005452        -0.407978        -1.774891
 H         1.154831         1.447070         1.499141
 H         1.914438        -0.134394         1.902367
 H         3.952863        -0.652068         1.752364
 H         3.557673         2.877855         1.221165
 H         4.593390         2.221721        -0.314772
 H         1.463492         1.485002        -2.205373
 H         3.443790        -0.634297        -1.374193
