19
Iteration:  2607charge 0 multiplicity 1
 C         0.260752        -0.572070        -0.528367
 C         1.320366         0.372535        -0.148141
 C         1.828572         0.691317         1.258721
 C         3.236594         0.790240         0.682566
 O         4.371367         0.189957         1.240707
 C         3.433303         2.325319         0.365572
 O         2.686270         2.552251        -0.798993
 C         2.062988         1.261525        -1.157483
 C         2.793976         0.136858        -0.664717
 H         0.294914        -1.477432         0.218428
 H        -0.721206        -0.160328        -0.381081
 H         0.380715        -1.123962        -1.530204
 H         1.350987         1.531262         1.753251
 H         1.588853         0.017387         2.070204
 H         4.071301        -0.557165         1.846400
 H         3.067558         2.837039         1.237834
 H         4.460694         2.552369         0.184353
 H         1.529182         1.273648        -2.150117
 H         3.205063        -0.745561        -1.092687
