19
Iteration:    32charge 0 multiplicity 1
 C        -0.104346        -0.334166        -0.022651
 C         1.204920         0.482312        -0.062240
 C         1.888444         0.837914         1.309980
 C         3.288012         0.793814         0.632037
 O         4.315361         0.229991         1.495042
 C         3.740819         2.191285         0.012256
 O         2.906636         2.314506        -1.154046
 C         2.046502         1.156221        -1.313058
 C         2.572958        -0.002527        -0.612344
 H        -0.136477        -0.863471         0.971925
 H        -1.072008         0.178527        -0.046222
 H        -0.031397        -1.077921        -0.841072
 H         1.654140         1.916618         1.692366
 H         1.716706         0.035700         2.082033
 H         5.240966         0.412147         1.169632
 H         3.602877         3.064970         0.633075
 H         4.786854         2.127971        -0.385503
 H         1.572904         1.079254        -2.224150
 H         2.850334        -1.007725        -0.915538
