19
Iteration:  4965charge 0 multiplicity 1
 C         0.296054        -0.586326        -0.610924
 C         1.427336         0.317149        -0.272681
 C         1.754532         0.553523         1.179137
 C         3.213884         0.827424         0.782428
 O         4.309373         0.182561         1.378870
 C         3.518578         2.224430         0.354755
 O         2.513071         2.628591        -0.696628
 C         2.135103         1.331956        -1.223845
 C         2.866656         0.207661        -0.633745
 H         0.355869        -1.519954        -0.077692
 H        -0.609901        -0.045182        -0.258858
 H        -0.011321        -0.811044        -1.647799
 H         1.273619         1.458763         1.641116
 H         1.576771        -0.250800         1.907747
 H         4.067500        -0.330571         2.123699
 H         3.395897         3.030521         1.107317
 H         4.438442         2.346393        -0.205398
 H         1.930129         1.385008        -2.302789
 H         3.260383        -0.662250        -1.172207
