19
Iteration:  2861charge 0 multiplicity 1
 C         0.156377        -0.472490        -0.505134
 C         1.394346         0.330834        -0.249009
 C         1.849887         0.559001         1.217383
 C         3.241001         0.782521         0.672692
 O         4.349151         0.333422         1.480210
 C         3.585215         2.239569         0.200443
 O         2.535976         2.521436        -0.658760
 C         2.053933         1.300483        -1.213353
 C         2.823857         0.114536        -0.744691
 H         0.212448        -1.538142        -0.030006
 H        -0.762018        -0.087413        -0.166938
 H         0.130475        -0.541673        -1.599026
 H         1.503747         1.286888         1.982985
 H         1.901547        -0.462463         1.745708
 H         3.953794        -0.263456         2.188783
 H         3.563981         2.922423         1.124092
 H         4.537357         2.252723        -0.440348
 H         1.836175         1.388218        -2.325190
 H         3.086187        -0.795423        -1.229599
