19
Iteration:  1225charge 0 multiplicity 1
 C         0.109618        -0.434164        -0.554877
 C         1.381545         0.285178        -0.222375
 C         1.833105         0.576627         1.246032
 C         3.320777         0.682541         0.730729
 O         4.337394         0.397477         1.614609
 C         3.577150         2.119369         0.122772
 O         2.553023         2.556583        -0.733272
 C         1.995459         1.310874        -1.182869
 C         2.843905         0.096246        -0.677552
 H         0.089747        -1.561986        -0.348788
 H        -0.741549         0.208985        -0.150910
 H        -0.077657        -0.477058        -1.737150
 H         1.339062         1.464471         1.646975
 H         1.789358        -0.285557         1.936057
 H         5.195196         0.243353         1.131767
 H         3.746330         2.938749         0.854763
 H         4.591724         1.908042        -0.463223
 H         1.435467         1.489548        -2.087871
 H         3.025106        -0.746405        -1.477126
