19
Iteration:  1992
 C         0.069960        -0.509927        -0.699406
 C         1.336823         0.336033        -0.147196
 C         1.890309         0.541921         1.257908
 C         3.340635         0.733315         0.669360
 O         4.494387         0.422781         1.508115
 C         3.568176         2.143615         0.174785
 O         2.461194         2.589039        -0.676190
 C         2.012457         1.276062        -1.090143
 C         2.824078         0.107685        -0.706315
 H        -0.021915        -1.417821        -0.167891
 H        -0.846961         0.002109        -0.455498
 H         0.017882        -0.498540        -1.840237
 H         1.566946         1.483414         1.757624
 H         1.630193        -0.309075         1.975551
 H         4.420990        -0.396143         2.009266
 H         3.682724         2.894866         0.996222
 H         4.423431         1.932789        -0.569222
 H         1.509439         1.269651        -2.084856
 H         3.203559        -0.601013        -1.497947
