19
Iteration:  2280charge 0 multiplicity 1
 C         0.125466        -0.494748        -0.635248
 C         1.350156         0.303309        -0.169907
 C         1.864217         0.698311         1.234168
 C         3.340139         0.752124         0.659353
 O         4.429455         0.265799         1.374263
 C         3.584617         2.260838         0.229184
 O         2.397801         2.526472        -0.639020
 C         2.032332         1.220827        -1.147266
 C         2.877640         0.136696        -0.652770
 H         0.052488        -1.576281        -0.323524
 H        -0.799530         0.085800        -0.329601
 H         0.117313        -0.568785        -1.786839
 H         1.501678         1.554454         1.843096
 H         1.837212        -0.097693         2.032274
 H         4.079749        -0.380642         2.060736
 H         3.497123         2.973158         1.024594
 H         4.531854         2.246612        -0.306629
 H         1.738622         1.362313        -2.181858
 H         3.492259        -0.716686        -1.071894
