19
Iteration:  2296
 C         0.150179        -0.479545        -0.479434
 C         1.469621         0.213603        -0.245062
 C         1.857248         0.590824         1.199231
 C         3.299826         0.842852         0.701814
 O         4.428628         0.204671         1.433509
 C         3.495658         2.280262         0.290071
 O         2.541228         2.572004        -0.755654
 C         1.995153         1.285949        -1.155216
 C         2.816766         0.146394        -0.697865
 H         0.048771        -1.413868         0.058205
 H        -0.785941        -0.000762        -0.222924
 H        -0.061515        -0.629401        -1.515320
 H         1.296544         1.513288         1.356300
 H         1.752823        -0.289035         1.808221
 H         4.017142        -0.522551         1.976351
 H         3.303801         2.946867         1.189113
 H         4.448348         2.519723        -0.221008
 H         1.565517         1.317257        -2.189121
 H         3.273562        -0.347252        -1.512779
