19
Iteration:  2698charge 0 multiplicity 1
 C         0.078361        -0.312988        -0.479433
 C         1.442814         0.257562        -0.289793
 C         1.780439         0.686482         1.076712
 C         3.372991         0.708921         0.691107
 O         4.435303         0.284810         1.509618
 C         3.525754         2.329097         0.188393
 O         2.356812         2.445150        -0.568235
 C         2.079919         1.129103        -1.239449
 C         2.941355         0.059995        -0.693805
 H         0.102044        -1.281726         0.045770
 H        -0.669341         0.389243         0.108612
 H        -0.158554        -0.445894        -1.529755
 H         1.432265         1.598504         1.455230
 H         1.564670        -0.087314         1.842745
 H         4.066574        -0.514325         1.852140
 H         3.447870         3.048741         1.057222
 H         4.383521         2.562066        -0.410336
 H         2.065721         1.186027        -2.317293
 H         3.810954        -0.355385        -1.272878
