19
Iteration:   100
 C        -0.181769        -0.196757        -0.321406
 C         1.237469         0.363316        -0.105798
 C         1.857756         1.009229         1.212501
 C         3.416384         0.761218         0.668411
 O         4.517662         0.270113         1.416244
 C         3.800948         2.054133        -0.129335
 O         2.551833         2.342884        -0.877096
 C         1.997657         1.043096        -1.155608
 C         2.774163        -0.053489        -0.403588
 H        -0.383173        -1.111046         0.199455
 H        -0.940520         0.437255         0.166331
 H        -0.366274        -0.285866        -1.379860
 H         1.616816         2.120761         1.268462
 H         1.604836         0.428995         2.129934
 H         4.299644         0.126255         2.340586
 H         4.113030         2.902700         0.485104
 H         4.545683         1.754484        -0.871317
 H         1.736592         1.028870        -2.297056
 H         3.217670        -0.906485        -0.919782
