19
Iteration:  3626charge 0 multiplicity 1
 C         0.214755        -0.626837        -0.610466
 C         1.360929         0.332816        -0.217256
 C         1.700587         0.483559         1.197723
 C         3.179631         0.842096         0.785188
 O         4.419996         0.283890         1.354705
 C         3.496820         2.303697         0.411081
 O         2.690096         2.592186        -0.782606
 C         1.999583         1.351499        -1.179770
 C         2.856379         0.176618        -0.652737
 H         0.118072        -1.476805         0.034494
 H        -0.733849         0.004504        -0.419565
 H         0.329981        -0.998115        -1.618157
 H         1.290416         1.343271         1.804803
 H         1.608142        -0.487956         1.690482
 H         4.459486        -0.667989         1.345029
 H         3.147176         2.848256         1.298415
 H         4.532687         2.485928         0.060842
 H         1.795289         1.373778        -2.252871
 H         3.371677        -0.707163        -0.970334
