19
Iteration:  1604charge 0 multiplicity 1
 C         0.235576        -0.498654        -0.575505
 C         1.374488         0.341390        -0.143498
 C         1.850191         0.737336         1.296717
 C         3.246202         0.807046         0.661192
 O         4.277045         0.176914         1.337976
 C         3.358039         2.310545         0.409727
 O         2.649128         2.519057        -0.777977
 C         2.146876         1.166902        -1.260158
 C         2.824396         0.106252        -0.609660
 H         0.297905        -1.590343        -0.265978
 H        -0.802048        -0.045656        -0.171409
 H         0.170281        -0.512953        -1.679296
 H         1.553265         1.689692         1.670487
 H         1.769420        -0.196128         1.855694
 H         4.974767         0.055194         0.700330
 H         2.860307         2.649638         1.368679
 H         4.387811         2.655111         0.371615
 H         1.682091         1.352698        -2.250387
 H         3.238768        -0.760073        -0.971358
