19
Iteration:  1155charge 0 multiplicity 1
 C         0.120296        -0.492905        -0.438351
 C         1.407756         0.338905        -0.174394
 C         1.776585         0.771530         1.250107
 C         3.264541         0.818071         0.731379
 O         4.396775         0.196743         1.331890
 C         3.468899         2.252289         0.307859
 O         2.612790         2.475256        -0.832010
 C         2.105651         1.221160        -1.217638
 C         2.856206         0.155641        -0.658024
 H         0.025711        -1.304321         0.316451
 H        -0.751590         0.257129        -0.473288
 H         0.153230        -1.080244        -1.342945
 H         1.437742         1.755869         1.657180
 H         1.440989        -0.040086         1.918803
 H         4.085637        -0.773587         1.422983
 H         3.262168         2.882075         1.209145
 H         4.539301         2.384971         0.000988
 H         1.679185         1.104683        -2.240205
 H         3.363474        -0.627404        -1.150082
