19
Iteration:  1981
 C         0.083655        -0.381187        -0.649322
 C         1.333567         0.252239        -0.208832
 C         1.885431         0.585100         1.234627
 C         3.324790         0.698486         0.692584
 O         4.447912         0.444192         1.478647
 C         3.597420         2.167830         0.154395
 O         2.386584         2.509843        -0.635154
 C         2.018910         1.271356        -1.106553
 C         2.831723         0.087808        -0.636108
 H         0.170776        -1.415374        -0.464047
 H        -0.805100         0.090263        -0.283147
 H         0.181640        -0.435469        -1.789667
 H         1.331390         1.389391         1.749839
 H         2.037324        -0.340437         1.883692
 H         4.398482        -0.537100         1.750404
 H         3.995495         2.927005         0.861134
 H         4.479330         2.206165        -0.588700
 H         1.804213         1.318026        -2.205709
 H         3.520828        -0.555681        -1.234160
