19
Iteration:  2931charge 0 multiplicity 1
 C         0.206911        -0.446963        -0.536150
 C         1.388334         0.384518        -0.171440
 C         1.833341         0.657014         1.255472
 C         3.293331         0.741088         0.687235
 O         4.349390         0.192937         1.405669
 C         3.420816         2.325371         0.287036
 O         2.526998         2.529064        -0.767430
 C         2.061460         1.231817        -1.206698
 C         2.941828         0.119799        -0.633993
 H        -0.063298        -1.225146         0.120667
 H        -0.762099         0.144329        -0.482069
 H         0.328515        -0.735154        -1.570395
 H         1.307459         1.441024         1.822974
 H         1.627209        -0.259454         1.912093
 H         4.456811        -0.733954         1.031706
 H         2.994570         2.985083         1.084165
 H         4.454217         2.526524         0.035348
 H         1.889600         1.058899        -2.277053
 H         3.376064        -0.816578        -1.130927
