19
Iteration:  2387charge 0 multiplicity 1
 C         0.146454        -0.425351        -0.782271
 C         1.337552         0.224491        -0.126025
 C         1.897797         0.663170         1.300792
 C         3.375143         0.828855         0.651100
 O         4.400242         0.326708         1.352363
 C         3.626235         2.323505         0.180128
 O         2.360972         2.476693        -0.597964
 C         2.013742         1.196276        -1.125675
 C         2.833585         0.020427        -0.531701
 H        -0.019380        -1.386962        -0.507608
 H        -0.666412         0.140043        -0.466617
 H         0.286179        -0.148061        -1.854516
 H         1.518408         1.538874         1.742665
 H         1.986385        -0.207308         1.916409
 H         4.222436        -0.549826         1.763555
 H         3.636311         2.966194         1.127844
 H         4.603812         2.454154        -0.430438
 H         1.562336         1.265364        -2.080420
 H         3.300426        -0.818948        -1.136525
