19
Iteration:  2223
 C         0.120265        -0.574201        -0.581078
 C         1.392843         0.262495        -0.193455
 C         1.884855         0.596975         1.270719
 C         3.320341         0.816486         0.697489
 O         4.361860         0.304681         1.454996
 C         3.604915         2.229573         0.250962
 O         2.516576         2.562770        -0.699490
 C         1.991280         1.305601        -1.159063
 C         2.797387         0.164590        -0.718424
 H        -0.000015        -1.413968         0.094795
 H        -0.843229        -0.060925        -0.520235
 H         0.027373        -0.961814        -1.692387
 H         1.536700         1.553513         1.644739
 H         1.830912        -0.341309         1.879875
 H         4.444372        -0.623552         1.291125
 H         3.583098         3.065220         0.999187
 H         4.616791         2.279443        -0.161890
 H         1.421828         1.509714        -2.108259
 H         3.365457        -0.413752        -1.379727
