19
Iteration:  3760
 C         0.268416        -0.579943        -0.723603
 C         1.359130         0.386041        -0.146804
 C         1.783658         0.654474         1.300033
 C         3.247820         0.755989         0.718687
 O         4.378248         0.181609         1.453676
 C         3.439518         2.397483         0.332799
 O         2.616292         2.540837        -0.805110
 C         2.031784         1.283631        -1.199024
 C         2.810845         0.162620        -0.588563
 H         0.495886        -1.623567        -0.379951
 H        -0.763773        -0.357176        -0.502369
 H         0.461507        -0.709290        -1.774268
 H         1.295866         1.460419         1.918345
 H         1.701221        -0.292375         1.845766
 H         4.441572        -0.743317         1.238528
 H         3.160120         2.978594         1.252158
 H         4.501976         2.474790         0.125918
 H         1.662186         1.233943        -2.210522
 H         3.218017        -0.611341        -1.274792
