19
Iteration:  1915
 C         0.150728        -0.571544        -0.405602
 C         1.399649         0.364680        -0.223564
 C         1.803968         0.608422         1.214769
 C         3.232761         0.793708         0.626208
 O         4.366396         0.237883         1.412969
 C         3.498151         2.337092         0.368957
 O         2.630301         2.518153        -0.791590
 C         2.070278         1.319365        -1.213981
 C         2.809397         0.112734        -0.765892
 H         0.570382        -1.380846         0.067924
 H        -0.754618        -0.223412        -0.021242
 H         0.020954        -0.833818        -1.499129
 H         1.477374         1.479582         1.780414
 H         1.874217        -0.313150         1.846225
 H         4.133723        -0.644404         1.644602
 H         3.253893         3.049944         1.093883
 H         4.520559         2.597422         0.198622
 H         1.604396         1.493852        -2.203178
 H         3.156317        -0.805652        -1.133938
