19
Iteration:  4852charge 0 multiplicity 1
 C         0.099463        -0.351150        -0.687926
 C         1.437537         0.186019        -0.287217
 C         1.915517         0.615398         1.109352
 C         3.374755         0.764505         0.669657
 O         4.371916         0.240378         1.664667
 C         3.494177         2.326994         0.266104
 O         2.356758         2.468867        -0.604037
 C         2.003489         1.251698        -1.164675
 C         2.995539         0.161853        -0.746416
 H        -0.148952        -1.191974        -0.134311
 H        -0.683312         0.423604        -0.377867
 H         0.053048        -0.590638        -1.780163
 H         1.522303         1.396977         1.729104
 H         1.653733        -0.311679         1.705746
 H         4.008548        -0.616173         1.818935
 H         3.436708         3.027125         1.112715
 H         4.411030         2.383370        -0.381401
 H         2.115938         1.298204        -2.250204
 H         3.505865        -0.547649        -1.373689
