19
Iteration:   781charge 0 multiplicity 1
 C         0.034369        -0.330088        -0.366239
 C         1.363235         0.296623        -0.150183
 C         1.859678         0.712402         1.310714
 C         3.288965         0.844155         0.649774
 O         4.325927         0.327830         1.404781
 C         3.647396         2.120182         0.131820
 O         2.666835         2.468579        -0.890296
 C         2.017018         1.204048        -1.239782
 C         2.784827         0.019137        -0.619255
 H        -0.064494        -0.938652         0.545162
 H        -0.839333         0.420686        -0.479186
 H         0.103331        -1.105062        -1.147841
 H         1.405566         1.647373         1.828611
 H         1.960608        -0.236431         1.930227
 H         3.859657         0.145117         2.284920
 H         3.796088         2.881216         0.961173
 H         4.607151         1.961276        -0.427307
 H         1.624592         1.101407        -2.289239
 H         3.102381        -0.930517        -1.117313
