19
Iteration:  1427
 C         0.106462        -0.469791        -0.517170
 C         1.425742         0.284964        -0.269612
 C         1.819206         0.618182         1.164112
 C         3.270685         0.728528         0.636394
 O         4.238730         0.285310         1.510745
 C         3.546906         2.249033         0.277950
 O         2.600854         2.570656        -0.704793
 C         2.065245         1.261745        -1.163344
 C         2.853502         0.049162        -0.658509
 H         0.387911        -1.476294        -0.166116
 H        -0.771558         0.049344        -0.059576
 H        -0.161435        -0.487885        -1.559908
 H         1.493910         1.386069         1.821710
 H         1.857464        -0.257827         1.745153
 H         5.089727         0.459065         1.117861
 H         3.336450         2.963139         1.105036
 H         4.548535         2.464597        -0.153207
 H         1.744742         1.410350        -2.172420
 H         3.361875        -0.786016        -1.272280
