19
Iteration:  1768charge 0 multiplicity 1
 C         0.185872        -0.510792        -0.556330
 C         1.328523         0.421271        -0.153503
 C         1.865571         0.536033         1.253077
 C         3.285030         0.759208         0.684005
 O         4.448799         0.331439         1.424974
 C         3.413881         2.259710         0.363874
 O         2.768113         2.498570        -0.899489
 C         1.966394         1.278460        -1.199038
 C         2.691442         0.115713        -0.635746
 H         0.314014        -1.454384        -0.076201
 H        -0.673804         0.015792        -0.135223
 H         0.157521        -0.682203        -1.583209
 H         1.447512         1.419802         1.826944
 H         1.765893        -0.482787         1.647168
 H         4.337763        -0.605499         1.776237
 H         2.766060         2.926929         1.003611
 H         4.437630         2.622230         0.292787
 H         1.537877         1.533184        -2.147866
 H         2.990650        -0.798287        -1.160225
