19
Iteration:  1035charge 0 multiplicity 1
 C         0.164886        -0.390482        -0.339273
 C         1.385659         0.356640        -0.106529
 C         1.756323         0.640485         1.304545
 C         3.259268         0.765134         0.688076
 O         4.332609         0.220383         1.419570
 C         3.431938         2.283468         0.219832
 O         2.767919         2.492151        -0.971187
 C         2.095954         1.243507        -1.216867
 C         2.741653         0.073504        -0.654728
 H         0.498405        -1.342405         0.118518
 H        -0.770682         0.190232        -0.020857
 H         0.095796        -0.758056        -1.343651
 H         1.319746         1.582325         1.597324
 H         1.419498        -0.152671         1.958801
 H         4.600971        -0.571323         0.996447
 H         2.996278         2.893063         1.063719
 H         4.501273         2.629163         0.114265
 H         1.741120         1.273044        -2.243807
 H         3.346812        -0.726266        -1.225818
