19
Iteration:  2649
 C         0.135955        -0.564266        -0.605436
 C         1.338286         0.384006        -0.122545
 C         1.756189         0.556421         1.234969
 C         3.290554         0.761687         0.727395
 O         4.426631         0.345697         1.459532
 C         3.606549         2.229192         0.191471
 O         2.588128         2.540140        -0.817891
 C         2.018084         1.335376        -1.093130
 C         2.817528         0.130349        -0.641051
 H         0.357602        -1.549745        -0.187858
 H        -0.805717        -0.265857        -0.328707
 H         0.169547        -0.605647        -1.705091
 H         1.277224         1.397325         1.862641
 H         1.818813        -0.388380         1.803702
 H         4.152781        -0.609657         1.589285
 H         3.482409         2.974946         0.943987
 H         4.583244         2.135803        -0.271808
 H         1.403615         1.458342        -2.022733
 H         3.152282        -0.618746        -1.312610
