19
Iteration:  1826charge 0 multiplicity 1
 C         0.085405        -0.365965        -0.543579
 C         1.393705         0.188936        -0.220726
 C         1.815647         0.711113         1.125191
 C         3.348009         0.810438         0.685530
 O         4.436894         0.272643         1.520639
 C         3.558806         2.279503         0.186741
 O         2.331429         2.457906        -0.574200
 C         2.121173         1.176297        -1.226318
 C         2.971568         0.090429        -0.689880
 H        -0.222957        -1.240917        -0.010767
 H        -0.686042         0.366912        -0.333202
 H        -0.217095        -0.430869        -1.596862
 H         1.267832         1.613844         1.516792
 H         1.683282        -0.024209         1.973765
 H         4.235508        -0.637233         1.599151
 H         3.684367         3.101884         0.879856
 H         4.514638         2.338752        -0.398537
 H         1.717694         1.165463        -2.241350
 H         3.580106        -0.551243        -1.391080
