19
Iteration:  4184
 C         0.315895        -0.548573        -0.652600
 C         1.363854         0.337223        -0.232939
 C         1.757835         0.636523         1.240129
 C         3.239151         0.817849         0.721390
 O         4.342744         0.240097         1.356488
 C         3.459821         2.268966         0.346571
 O         2.529030         2.561606        -0.623365
 C         2.151814         1.301026        -1.162193
 C         2.800960         0.135862        -0.688541
 H         0.310098        -1.432318        -0.020493
 H        -0.775456        -0.123355        -0.651714
 H         0.620341        -0.991682        -1.605560
 H         1.213015         1.442057         1.768338
 H         1.696902        -0.359194         1.870996
 H         4.338324        -0.717852         1.150464
 H         3.390611         3.012024         1.129449
 H         4.465994         2.258350        -0.134781
 H         1.650937         1.456327        -2.115910
 H         3.447035        -0.664046        -1.043888
