19
Iteration:   760charge 0 multiplicity 1
 C         0.060841        -0.448005        -0.289843
 C         1.284132         0.414918        -0.113502
 C         1.774208         0.803167         1.261854
 C         3.294451         0.779376         0.662152
 O         4.339914         0.219490         1.418283
 C         3.611533         2.251143         0.148209
 O         2.734433         2.415001        -0.966922
 C         2.080222         1.223686        -1.211385
 C         2.771413         0.045838        -0.564100
 H        -0.092049        -1.183717         0.476569
 H        -0.807730         0.210195        -0.507710
 H         0.337516        -0.990448        -1.161188
 H         1.648839         1.830172         1.689359
 H         1.624810        -0.036856         1.985921
 H         4.214652        -0.742354         1.228695
 H         3.402913         3.086192         0.845239
 H         4.598278         2.525940        -0.224547
 H         1.529495         1.149212        -2.178849
 H         3.218112        -0.758613        -1.165920
