19
Iteration:   226
 C        -0.175075        -0.261008        -0.317534
 C         1.249644         0.413849        -0.118778
 C         1.916359         0.875247         1.276802
 C         3.372403         0.802655         0.661189
 O         4.544331         0.228545         1.524586
 C         3.761076         2.058976        -0.145195
 O         2.592033         2.425454        -0.968796
 C         1.979999         1.141185        -1.168613
 C         2.703576        -0.038079        -0.453289
 H        -0.461630        -1.067857         0.416218
 H        -0.912826         0.512912        -0.471030
 H        -0.198017        -0.717194        -1.333233
 H         1.537339         1.762650         1.765053
 H         1.819637         0.076213         2.046467
 H         4.310678         0.367777         2.490274
 H         4.085990         2.986228         0.354959
 H         4.569242         1.742639        -0.799052
 H         1.646722         0.910283        -2.197522
 H         3.113308        -0.872522        -1.049872
