19
Iteration:  3219charge 0 multiplicity 1
 C         0.230350        -0.559666        -0.420963
 C         1.420193         0.291914        -0.268477
 C         1.897236         0.585455         1.183022
 C         3.271817         0.799843         0.645098
 O         4.178909         0.071510         1.488988
 C         3.484787         2.321494         0.352208
 O         2.537233         2.574738        -0.731276
 C         2.077284         1.366578        -1.262929
 C         2.869902         0.194185        -0.711035
 H         0.445779        -1.453079         0.036092
 H        -0.760774        -0.162092        -0.115861
 H         0.077996        -0.804796        -1.505481
 H         1.480682         1.376518         1.800237
 H         1.796874        -0.333964         1.767810
 H         4.945823         0.535880         1.173028
 H         3.333933         3.117421         1.062824
 H         4.489678         2.520734         0.017139
 H         1.644612         1.445668        -2.247297
 H         3.440353        -0.501255        -1.377782
