19
Iteration:  3450charge 0 multiplicity 1
 C         0.154375        -0.604285        -0.593106
 C         1.379308         0.270307        -0.347711
 C         1.896189         0.588872         1.153328
 C         3.299136         0.780625         0.652784
 O         4.364078         0.122145         1.420038
 C         3.467530         2.368266         0.355645
 O         2.422099         2.569593        -0.636043
 C         2.100317         1.314441        -1.149905
 C         2.902811         0.207175        -0.653970
 H         0.230818        -1.437712         0.032329
 H        -0.815045         0.050111        -0.458047
 H         0.039549        -0.726707        -1.684454
 H         1.504682         1.456679         1.656561
 H         1.673738        -0.260391         1.744962
 H         4.548596         0.352548         2.315778
 H         3.422531         2.973676         1.304674
 H         4.451552         2.587655         0.099232
 H         1.961040         1.366845        -2.253209
 H         3.384301        -0.457166        -1.374394
