19
Iteration:  1497
 C         0.142347        -0.536033        -0.616211
 C         1.383197         0.324546        -0.179183
 C         1.818947         0.752686         1.279666
 C         3.230901         0.893264         0.706446
 O         4.320244         0.153364         1.356334
 C         3.502379         2.337407         0.346175
 O         2.565044         2.459719        -0.728642
 C         2.092980         1.205974        -1.199669
 C         2.886838         0.096831        -0.591928
 H         0.042509        -1.429389        -0.028473
 H        -0.724223         0.109210        -0.664363
 H         0.200334        -0.824328        -1.673075
 H         1.278701         1.616984         1.746480
 H         1.607405        -0.138921         1.943654
 H         4.956369        -0.057521         0.670649
 H         3.269014         2.925539         1.264421
 H         4.550586         2.528659        -0.056114
 H         1.845104         1.292397        -2.289802
 H         3.495713        -0.647324        -0.960106
