19
Iteration:  3311
 C         0.128971        -0.544787        -0.616338
 C         1.420264         0.334998        -0.199534
 C         1.882772         0.487262         1.235037
 C         3.289864         0.792197         0.654081
 O         4.296533         0.182865         1.415109
 C         3.504433         2.298441         0.344583
 O         2.485486         2.591418        -0.725890
 C         2.066369         1.323753        -1.167592
 C         2.923848         0.163724        -0.715667
 H         0.089992        -1.427056         0.083087
 H        -0.789262        -0.023684        -0.592201
 H         0.118498        -0.862414        -1.614107
 H         1.455382         1.205015         2.022503
 H         1.808825        -0.496501         1.724633
 H         4.577925         0.876729         2.034787
 H         3.470722         2.850315         1.220490
 H         4.513585         2.519007         0.054762
 H         1.624271         1.437070        -2.185337
 H         3.396979        -0.651310        -1.260959
