19
Iteration:   333charge 0 multiplicity 1
 C        -0.009171        -0.343509        -0.181462
 C         1.327009         0.379911        -0.013918
 C         1.866125         0.929911         1.336081
 C         3.274054         0.788820         0.650607
 O         4.315049         0.183868         1.382342
 C         3.660023         2.133406         0.066907
 O         2.783090         2.370508        -1.103159
 C         2.063635         1.196960        -1.250462
 C         2.709736         0.038942        -0.627299
 H        -0.092277        -1.211916         0.459035
 H        -0.851770         0.268114         0.144411
 H        -0.096234        -0.757220        -1.184126
 H         1.678215         1.932184         1.768710
 H         1.706308         0.062101         2.009600
 H         4.029036         0.061297         2.321801
 H         3.485865         3.064450         0.654941
 H         4.675766         2.085256        -0.400175
 H         1.383092         1.087692        -2.085867
 H         3.205049        -0.877796        -1.005224
