19
Iteration:    22
 C        -0.164217        -0.354387        -0.066889
 C         1.131871         0.538432        -0.048159
 C         1.967181         0.884008         1.215612
 C         3.347148         0.805139         0.556838
 O         4.246728         0.221339         1.438849
 C         3.821493         2.196322        -0.006205
 O         2.857721         2.339538        -1.111755
 C         2.051102         1.075955        -1.231478
 C         2.596946        -0.048645        -0.485009
 H        -0.038293        -0.953637         0.860221
 H        -1.126610         0.167036        -0.044905
 H        -0.195783        -1.100062        -0.879583
 H         1.701295         1.740838         1.980135
 H         1.963591        -0.038354         1.858605
 H         5.028596         0.834098         1.391993
 H         3.619108         2.981936         0.703202
 H         4.903374         2.260195        -0.274188
 H         1.854559         1.036529        -2.270494
 H         2.979952        -0.988527        -0.857296
