19
Iteration:  1209charge 0 multiplicity 1
 C         0.097079        -0.444841        -0.549554
 C         1.331306         0.355913        -0.163486
 C         1.893787         0.598609         1.232864
 C         3.283729         0.777254         0.648468
 O         4.309359         0.259814         1.554822
 C         3.579075         2.211029         0.242023
 O         2.587317         2.511625        -0.819215
 C         2.017550         1.257328        -1.156751
 C         2.776832         0.078787        -0.733344
 H         0.149094        -1.353620        -0.002046
 H        -0.815549        -0.041769        -0.135113
 H         0.125481        -0.580360        -1.566954
 H         1.601661         1.485161         1.836004
 H         1.886943        -0.388862         1.731744
 H         5.127169         0.862518         1.448667
 H         3.458843         2.836903         1.139067
 H         4.567585         2.319431        -0.144543
 H         1.728115         1.165097        -2.229195
 H         3.443613        -0.575901        -1.155305
