19
Iteration:  3342charge 0 multiplicity 1
 C         0.175358        -0.601500        -0.464086
 C         1.448616         0.281641        -0.350166
 C         1.827768         0.609910         1.167180
 C         3.286267         0.791037         0.723328
 O         4.284323         0.112716         1.396728
 C         3.386109         2.313224         0.473984
 O         2.557512         2.586333        -0.739193
 C         2.102075         1.357153        -1.183670
 C         2.941296         0.200783        -0.751288
 H         0.138403        -1.476983         0.197655
 H        -0.715225         0.054920        -0.191096
 H        -0.047194        -1.094903        -1.399112
 H         1.247531         1.506252         1.509678
 H         1.533984        -0.237294         1.723549
 H         5.093589         0.531184         0.981750
 H         3.046349         2.837395         1.462929
 H         4.447715         2.578875         0.152892
 H         1.802440         1.465572        -2.253190
 H         3.354105        -0.695430        -1.156245
