19
Iteration:  2591
 C         0.166773        -0.546434        -0.449383
 C         1.455961         0.226121        -0.232785
 C         1.768077         0.698639         1.202548
 C         3.359956         0.820904         0.665251
 O         4.400257         0.127247         1.374564
 C         3.475572         2.299577         0.374776
 O         2.557677         2.565376        -0.814464
 C         1.964315         1.336451        -1.184905
 C         2.849956         0.130088        -0.643604
 H         0.038384        -1.369821         0.184812
 H        -0.749209         0.116287        -0.457023
 H         0.145207        -0.877135        -1.451165
 H         1.513343         1.756001         1.543752
 H         1.695388        -0.242379         1.788724
 H         4.124169        -0.640723         1.886650
 H         3.172715         3.104200         1.106809
 H         4.483954         2.761934         0.091449
 H         1.684011         1.353225        -2.209252
 H         3.462755        -0.546081        -1.298966
