19
Iteration:  2052charge 0 multiplicity 1
 C         0.216472        -0.570027        -0.416962
 C         1.416618         0.292216        -0.205503
 C         1.804440         0.682489         1.229439
 C         3.285326         0.799147         0.698704
 O         4.432347         0.023478         1.358429
 C         3.422114         2.343001         0.380046
 O         2.484694         2.589665        -0.812223
 C         2.128014         1.377293        -1.307917
 C         2.832142         0.235931        -0.673094
 H         0.146229        -1.427392         0.347745
 H        -0.654721         0.117403        -0.222257
 H         0.066334        -1.224271        -1.188418
 H         1.301735         1.580005         1.611637
 H         1.732986        -0.156461         1.891927
 H         4.072138        -0.934115         1.414030
 H         3.264153         3.042273         1.198477
 H         4.425203         2.599690         0.119740
 H         1.678872         1.261678        -2.311052
 H         3.418112        -0.501801        -1.131513
