19
Iteration:  4940
 C         0.303750        -0.607654        -0.670027
 C         1.363496         0.307324        -0.110170
 C         1.789278         0.582721         1.262900
 C         3.229682         0.889160         0.737484
 O         4.248430         0.175269         1.313896
 C         3.491487         2.297520         0.373398
 O         2.714868         2.563029        -0.785106
 C         2.042001         1.303426        -1.135970
 C         2.807858         0.191928        -0.666112
 H         0.450258        -1.589104        -0.408206
 H        -0.782882        -0.322632        -0.653630
 H         0.462566        -0.603820        -1.783417
 H         1.367220         1.342884         1.925605
 H         1.755383        -0.375402         1.885263
 H         3.937557        -0.471562         1.911131
 H         2.902370         2.908017         1.040787
 H         4.476001         2.770222         0.180814
 H         1.475220         1.488688        -2.029947
 H         3.597476        -0.445814        -1.095846
