19
Iteration:  1800
 C         0.070892        -0.419367        -0.471321
 C         1.359388         0.258152        -0.255048
 C         1.853305         0.485245         1.169372
 C         3.260107         0.775917         0.686130
 O         4.353516         0.376426         1.499526
 C         3.519956         2.231766         0.235033
 O         2.585040         2.566520        -0.771858
 C         2.056742         1.266797        -1.222744
 C         2.919214         0.085858        -0.609680
 H        -0.004033        -1.344827         0.104607
 H        -0.718693         0.290497        -0.168067
 H        -0.300094        -0.532263        -1.450907
 H         1.365412         1.276785         1.800585
 H         1.822093        -0.429464         1.766246
 H         4.519536        -0.524549         1.306489
 H         3.553128         2.992133         1.074123
 H         4.555251         2.361092        -0.063291
 H         1.580054         1.257293        -2.208500
 H         3.517636        -0.556509        -1.250223
