19
Iteration:  3757
 C         0.278130        -0.591864        -0.715747
 C         1.375536         0.388125        -0.137942
 C         1.800792         0.670310         1.304416
 C         3.247461         0.743810         0.702430
 O         4.366854         0.183353         1.468843
 C         3.429353         2.343706         0.336785
 O         2.597833         2.554524        -0.816712
 C         2.050519         1.299929        -1.190449
 C         2.823307         0.162201        -0.606113
 H         0.498645        -1.573314        -0.327909
 H        -0.837668        -0.298944        -0.479610
 H         0.403816        -0.673588        -1.808260
 H         1.210359         1.459600         1.924522
 H         1.673559        -0.320328         1.812469
 H         4.480934        -0.758689         1.252471
 H         3.132722         3.001722         1.139300
 H         4.485096         2.518317         0.141671
 H         1.615039         1.315540        -2.212333
 H         3.224174        -0.579329        -1.258367
