19
Iteration:  1700charge 0 multiplicity 1
 C         0.109261        -0.496552        -0.565587
 C         1.408360         0.286973        -0.282730
 C         1.826800         0.643831         1.180856
 C         3.322341         0.778014         0.676037
 O         4.325328         0.176182         1.580270
 C         3.585116         2.228180         0.157923
 O         2.436598         2.520286        -0.585282
 C         2.065009         1.248377        -1.166779
 C         2.892090         0.167583        -0.735955
 H        -0.029978        -1.357130         0.065928
 H        -0.647868         0.243475        -0.384153
 H        -0.092678        -0.787205        -1.528342
 H         1.563614         1.724798         1.365596
 H         1.583921        -0.230307         1.765085
 H         4.977363         0.903560         1.733934
 H         3.648630         3.025091         0.952866
 H         4.456324         2.338514        -0.541578
 H         1.746438         1.226410        -2.216552
 H         3.469967        -0.434592        -1.351800
