19
Iteration:  4058charge 0 multiplicity 1
 C         0.267601        -0.550260        -0.627930
 C         1.374517         0.373152        -0.158663
 C         1.740940         0.552465         1.325984
 C         3.226933         0.751346         0.633308
 O         4.347373         0.343419         1.336407
 C         3.377332         2.280951         0.542444
 O         2.755804         2.515325        -0.871144
 C         2.058488         1.345113        -1.192835
 C         2.786673         0.098121        -0.685256
 H         0.390972        -1.504713         0.007295
 H        -0.678077        -0.174034        -0.396520
 H         0.225433        -0.708360        -1.756745
 H         1.381011         1.459435         1.866282
 H         1.551094        -0.379212         1.851774
 H         4.543217        -0.562704         1.365413
 H         3.091081         2.835497         1.480052
 H         4.479565         2.442097         0.453029
 H         1.569075         1.493390        -2.138739
 H         3.191903        -0.758890        -1.293670
