19
Iteration:   684charge 0 multiplicity 1
 C        -0.155361        -0.400536        -0.361045
 C         1.309406         0.310462        -0.145463
 C         1.935673         0.742719         1.194780
 C         3.395815         0.807530         0.662466
 O         4.366261         0.326472         1.613712
 C         3.759173         2.093526        -0.059360
 O         2.609095         2.498410        -0.805075
 C         2.029237         1.247674        -1.236020
 C         2.765631         0.007551        -0.630756
 H        -0.042914        -1.419005         0.003091
 H        -0.964607         0.075540         0.231491
 H        -0.283493        -0.445064        -1.402352
 H         1.439573         1.659716         1.550591
 H         1.768379        -0.085618         1.928591
 H         3.905031         0.379319         2.471922
 H         3.881355         3.049331         0.478805
 H         4.491499         1.749463        -0.886848
 H         1.851667         1.078556        -2.299654
 H         3.260024        -0.862198        -1.173163
