19
Iteration:  3117
 C         0.061801        -0.406440        -0.661258
 C         1.452578         0.166505        -0.193639
 C         1.849622         0.600336         1.195572
 C         3.317347         0.797715         0.658061
 O         4.333448         0.267441         1.552680
 C         3.626237         2.204082         0.172038
 O         2.379264         2.539482        -0.620770
 C         2.025674         1.227488        -1.130372
 C         2.922779         0.153981        -0.685097
 H        -0.334893        -1.244712        -0.142572
 H        -0.711027         0.297645        -0.370453
 H         0.224884        -0.556002        -1.733204
 H         1.368763         1.482550         1.508835
 H         1.812089        -0.243044         1.932002
 H         5.302683         0.282197         1.193929
 H         3.629610         3.016216         0.958382
 H         4.377561         2.239935        -0.558703
 H         1.561900         1.512674        -2.065952
 H         3.664583        -0.544734        -0.950812
