19
Iteration:   949charge 0 multiplicity 1
 C         0.039575        -0.331710        -0.559466
 C         1.372520         0.266621        -0.134720
 C         1.785976         0.887916         1.210975
 C         3.445399         0.843739         0.623073
 O         4.359365         0.278120         1.468834
 C         3.678735         2.250603         0.060795
 O         2.449145         2.393024        -0.661714
 C         2.064153         1.117657        -1.119655
 C         2.848606        -0.005283        -0.580395
 H        -0.175548        -1.252924         0.099733
 H        -0.768921         0.368270        -0.269687
 H        -0.141294        -0.727874        -1.586763
 H         1.304220         1.867446         1.518241
 H         1.742194         0.026511         1.952271
 H         4.115097        -0.706369         1.485905
 H         3.947636         3.026247         0.766815
 H         4.442634         2.227169        -0.713213
 H         1.737870         1.034758        -2.135830
 H         3.422742        -0.871755        -1.096596
