19
Iteration:  1345charge 0 multiplicity 1
 C         0.179085        -0.535968        -0.569251
 C         1.318677         0.353569        -0.199223
 C         1.754083         0.549273         1.242340
 C         3.261850         0.742188         0.674553
 O         4.384149         0.336680         1.460645
 C         3.576830         2.233907         0.303239
 O         2.673290         2.547547        -0.820874
 C         1.977371         1.335525        -1.157995
 C         2.797138         0.134436        -0.661796
 H         0.030921        -1.206653         0.288865
 H        -0.761822        -0.039201        -0.442721
 H         0.261223        -1.195473        -1.467863
 H         1.520909         1.466982         1.742186
 H         1.859911        -0.355700         1.829500
 H         4.420520        -0.634486         1.700938
 H         3.437194         3.008060         1.046986
 H         4.526520         2.395791        -0.140253
 H         1.460588         1.317651        -2.116802
 H         3.327423        -0.566668        -1.327659
