19
Iteration:  4492
 C         0.097001        -0.512242        -0.536961
 C         1.354490         0.241508        -0.306130
 C         1.812696         0.431127         1.181546
 C         3.295916         0.861958         0.755457
 O         4.285684         0.223699         1.396769
 C         3.471454         2.384664         0.455516
 O         2.573822         2.560337        -0.778738
 C         2.146106         1.302257        -1.246589
 C         2.973950         0.242595        -0.645555
 H         0.133376        -1.254908         0.194657
 H        -0.838542         0.049055        -0.504025
 H         0.101718        -1.017988        -1.519707
 H         1.277721         0.993212         1.947221
 H         1.849940        -0.562016         1.645061
 H         4.169085        -0.734119         1.300544
 H         3.005061         3.004696         1.219383
 H         4.481366         2.784719         0.255588
 H         1.998862         1.352649        -2.320954
 H         3.631795        -0.490217        -1.062394
