19
Iteration:  2111charge 0 multiplicity 1
 C         0.146688        -0.476192        -0.671997
 C         1.376270         0.280673        -0.179965
 C         1.814276         0.545171         1.206140
 C         3.338821         0.725918         0.689929
 O         4.504111         0.377416         1.567029
 C         3.649893         2.233170         0.086241
 O         2.456417         2.582326        -0.626655
 C         1.889576         1.321575        -1.091024
 C         2.796073         0.075118        -0.674113
 H         0.340925        -1.446642        -0.275932
 H        -0.788753        -0.156737        -0.205535
 H         0.025992        -0.239374        -1.786493
 H         1.314539         1.318337         1.790259
 H         1.647654        -0.403615         1.762099
 H         4.359439        -0.587277         1.795565
 H         3.893907         3.123425         0.676875
 H         4.235614         1.968847        -0.700630
 H         1.563037         1.361850        -2.110938
 H         3.282906        -0.666232        -1.426203
