19
Iteration:  4044
 C         0.236843        -0.539515        -0.706651
 C         1.304343         0.389048        -0.188768
 C         1.859424         0.543964         1.334300
 C         3.216053         0.769985         0.779686
 O         4.423725         0.289406         1.418027
 C         3.416984         2.222868         0.348607
 O         2.705771         2.552171        -0.826517
 C         2.036480         1.337098        -1.188676
 C         2.737977         0.187633        -0.644967
 H         0.289755        -1.576605        -0.289234
 H        -0.787883        -0.219496        -0.519769
 H         0.486694        -0.783207        -1.743715
 H         1.417103         1.292101         2.020036
 H         1.834452        -0.400406         1.818418
 H         4.260266        -0.696095         1.484480
 H         2.797945         2.842608         1.011586
 H         4.491692         2.597662         0.213636
 H         1.601833         1.296641        -2.227254
 H         3.226166        -0.655463        -1.100405
