19
Iteration:   112charge 0 multiplicity 1
 C        -0.051574        -0.168743        -0.268654
 C         1.320248         0.371809        -0.004740
 C         1.818028         0.978327         1.226222
 C         3.283377         0.767197         0.691881
 O         4.458819         0.327597         1.392002
 C         3.735677         1.928333        -0.144822
 O         2.611744         2.350120        -0.848254
 C         2.069081         1.087269        -1.150533
 C         2.723402        -0.098638        -0.583364
 H        -0.134296        -1.176844         0.009013
 H        -0.831309         0.506437         0.120561
 H        -0.225751        -0.166112        -1.329745
 H         1.539470         2.057525         1.323421
 H         1.533496         0.533862         2.193083
 H         4.367726         0.682450         2.329231
 H         4.082109         2.823610         0.405350
 H         4.547800         1.600614        -0.780468
 H         1.431481         0.944579        -2.136058
 H         3.168685        -0.964885        -1.095228
