19
Iteration:  2844charge 0 multiplicity 1
 C         0.130369        -0.445583        -0.501727
 C         1.444343         0.316249        -0.262803
 C         1.933317         0.636872         1.131557
 C         3.409467         0.773929         0.601930
 O         4.261493         0.281642         1.557148
 C         3.622027         2.193196         0.208793
 O         2.339707         2.545531        -0.611204
 C         2.070828         1.217746        -1.217164
 C         2.905107         0.101743        -0.743098
 H         0.183392        -1.384659        -0.001693
 H        -0.625105         0.174208         0.126245
 H        -0.291820        -0.497142        -1.531022
 H         1.391878         1.449138         1.612430
 H         1.833858        -0.219976         1.779493
 H         3.776877        -0.352670         2.154977
 H         3.631482         2.929665         0.986604
 H         4.528633         2.330186        -0.332024
 H         1.634153         1.408381        -2.173781
 H         3.511589        -0.517435        -1.430304
