19
Iteration:  3708
 C        -0.019068        -0.550436        -0.575002
 C         1.410363         0.238345        -0.389773
 C         1.789685         0.546317         1.029966
 C         3.284163         0.853345         0.693548
 O         4.371881         0.338829         1.562946
 C         3.627843         2.287592         0.265359
 O         2.420341         2.519385        -0.546779
 C         2.133486         1.306834        -1.209194
 C         2.978714         0.149751        -0.645995
 H         0.109180        -1.498162         0.070867
 H        -0.779891         0.054495        -0.201347
 H        -0.294742        -0.762172        -1.645459
 H         1.340359         1.350617         1.502227
 H         1.855504        -0.235002         1.772839
 H         4.001504        -0.549884         1.619700
 H         3.764842         2.787097         1.292871
 H         4.653080         2.433836        -0.230097
 H         1.948099         1.324859        -2.254783
 H         3.642079        -0.526706        -1.271664
