19
Iteration:  2849
 C         0.137145        -0.421798        -0.500494
 C         1.419666         0.304742        -0.248236
 C         1.909063         0.636285         1.192448
 C         3.379263         0.776635         0.597275
 O         4.271053         0.301150         1.542155
 C         3.630376         2.195552         0.231065
 O         2.351930         2.532595        -0.628283
 C         2.093501         1.262899        -1.226028
 C         2.900868         0.097551        -0.770961
 H         0.279721        -1.519674        -0.057545
 H        -0.615922         0.111262         0.030328
 H        -0.240541        -0.632857        -1.535278
 H         1.362141         1.414031         1.810358
 H         1.853969        -0.394755         1.686666
 H         3.762886        -0.262575         2.116161
 H         3.734199         2.948383         1.064145
 H         4.647877         2.302062        -0.350461
 H         1.676176         1.215108        -2.275364
 H         3.311756        -0.653328        -1.475122
