19
Iteration:  4143charge 0 multiplicity 1
 C         0.105377        -0.466438        -0.780652
 C         1.412571         0.184925        -0.201295
 C         1.860111         0.565049         1.155840
 C         3.262521         0.748076         0.655902
 O         4.406245         0.402006         1.547422
 C         3.614956         2.215696         0.194137
 O         2.405457         2.539991        -0.466565
 C         2.009138         1.288239        -1.121786
 C         2.930695         0.106250        -0.753265
 H        -0.081485        -1.518651        -0.397576
 H        -0.773725         0.171036        -0.655258
 H         0.156509        -0.599131        -1.886563
 H         1.375499         1.526665         1.522936
 H         1.901888        -0.082507         2.045981
 H         4.165762        -0.174770         2.335049
 H         3.793328         2.875274         1.047802
 H         4.525094         2.198994        -0.491221
 H         1.641934         1.472794        -2.104782
 H         3.342987        -0.557172        -1.549452
