19
Iteration:  1264
 C         0.044372        -0.477538        -0.630512
 C         1.369745         0.297486        -0.188335
 C         1.895531         0.723858         1.197471
 C         3.355669         0.834353         0.680158
 O         4.370068         0.237439         1.439385
 C         3.587068         2.250637         0.137938
 O         2.456101         2.476800        -0.622498
 C         2.033791         1.223950        -1.144292
 C         2.921552         0.078308        -0.635782
 H         0.046480        -1.510084        -0.340878
 H        -0.817324         0.053552        -0.199622
 H        -0.183453        -0.384042        -1.649549
 H         1.529235         1.666197         1.688643
 H         1.647108        -0.018437         2.003694
 H         3.957546        -0.160923         2.269725
 H         3.609514         3.035981         0.913605
 H         4.446718         2.342917        -0.489884
 H         1.989789         1.157051        -2.237922
 H         3.445259        -0.701199        -1.091493
