19
Iteration:  2684
 C         0.043109        -0.368377        -0.502850
 C         1.437613         0.187182        -0.274551
 C         1.909085         0.706726         1.112453
 C         3.362341         0.838697         0.611742
 O         4.334266         0.321860         1.529408
 C         3.564765         2.243101         0.186842
 O         2.340191         2.458663        -0.569850
 C         2.131530         1.236897        -1.179127
 C         2.992338         0.027484        -0.690989
 H        -0.182748        -1.431670        -0.228024
 H        -0.653197         0.217700        -0.045149
 H        -0.233748        -0.316693        -1.574792
 H         1.295361         1.590015         1.425364
 H         1.775314        -0.072204         1.876072
 H         4.201532        -0.640632         1.756721
 H         3.609168         2.916701         0.993845
 H         4.454521         2.390129        -0.368148
 H         1.650134         1.328165        -2.121271
 H         3.385635        -0.845489        -1.288313
