19
Iteration:   934charge 0 multiplicity 1
 C         0.005780        -0.447101        -0.460254
 C         1.319307         0.311424        -0.169625
 C         1.839961         0.803305         1.180631
 C         3.366589         0.821716         0.643130
 O         4.338844         0.188281         1.558148
 C         3.700262         2.245174         0.015130
 O         2.513350         2.525919        -0.769401
 C         2.047365         1.171963        -1.176944
 C         2.831197         0.032349        -0.509499
 H        -0.085402        -1.300510         0.175406
 H        -0.917810         0.184678        -0.301212
 H         0.109439        -0.598325        -1.501931
 H         1.362865         1.696788         1.525227
 H         1.843196         0.208759         2.044077
 H         4.853781        -0.491378         1.068230
 H         3.576331         2.955317         0.847540
 H         4.684957         2.305018        -0.469706
 H         1.785179         1.173666        -2.238888
 H         3.204261        -0.745036        -1.097938
