19
Iteration:  3743charge 0 multiplicity 1
 C         0.316263        -0.535792        -0.595023
 C         1.400730         0.336480        -0.254968
 C         1.836524         0.594674         1.227958
 C         3.280619         0.781177         0.741778
 O         4.259916         0.255153         1.521204
 C         3.454291         2.162133         0.350010
 O         2.530567         2.607796        -0.808647
 C         2.071000         1.359989        -1.166658
 C         2.859828         0.148806        -0.735156
 H         0.307942        -1.554161        -0.170629
 H        -0.644050        -0.065753        -0.211006
 H         0.217103        -0.686463        -1.722442
 H         1.519088         1.526735         1.695660
 H         1.758655        -0.245906         1.961012
 H         4.365142        -0.633596         1.189708
 H         3.059285         2.724415         1.228652
 H         4.499993         2.419276        -0.018450
 H         1.595289         1.342813        -2.160117
 H         3.421545        -0.710850        -1.072844
