19
Iteration:  3006charge 0 multiplicity 1
 C         0.226444        -0.508453        -0.641619
 C         1.317272         0.311300        -0.216557
 C         1.836981         0.678816         1.170556
 C         3.367706         0.736681         0.733549
 O         4.424328         0.236265         1.497766
 C         3.557891         2.224538         0.149196
 O         2.463893         2.556899        -0.692762
 C         1.997999         1.277633        -1.179030
 C         2.826471         0.159791        -0.608157
 H         0.177883        -1.630298        -0.289741
 H        -0.754602        -0.144273        -0.235903
 H         0.132738        -0.351280        -1.699676
 H         1.503487         1.472107         1.832657
 H         1.626980        -0.193648         1.902635
 H         4.062553        -0.161870         2.269781
 H         3.615070         2.849370         1.148441
 H         4.533404         2.362916        -0.423333
 H         1.516318         1.415656        -2.168619
 H         3.189193        -0.785766        -1.177534
