19
Iteration:  2648
 C         0.145753        -0.572385        -0.610521
 C         1.334762         0.390039        -0.123724
 C         1.749978         0.552605         1.237362
 C         3.295355         0.765418         0.734641
 O         4.429168         0.342028         1.453340
 C         3.600831         2.226745         0.196850
 O         2.596630         2.546090        -0.821400
 C         2.018343         1.330773        -1.094115
 C         2.806139         0.135009        -0.637947
 H         0.372360        -1.523679        -0.168375
 H        -0.847248        -0.259104        -0.324425
 H         0.156448        -0.623464        -1.700478
 H         1.295828         1.427904         1.867657
 H         1.831344        -0.412926         1.778912
 H         4.163181        -0.595790         1.592587
 H         3.462569         2.995292         0.962506
 H         4.604416         2.134510        -0.298128
 H         1.394333         1.441323        -2.029822
 H         3.126132        -0.637515        -1.285181
