19
Iteration:  3612charge 0 multiplicity 1
 C         0.262930        -0.559209        -0.504713
 C         1.415923         0.300614        -0.309460
 C         1.753868         0.606264         1.189324
 C         3.217705         0.754198         0.668822
 O         4.327198         0.335547         1.359982
 C         3.415676         2.238994         0.445585
 O         2.627072         2.548668        -0.698435
 C         2.143277         1.333888        -1.205619
 C         2.843324         0.156184        -0.671712
 H         0.411467        -1.356289         0.204557
 H        -0.720282        -0.089970        -0.352892
 H         0.142695        -0.861036        -1.579422
 H         1.051087         1.301991         1.767493
 H         1.712991        -0.421634         1.720524
 H         4.318792        -0.617339         1.134473
 H         3.196177         2.965288         1.158006
 H         4.477193         2.231309         0.328056
 H         1.568385         1.472299        -2.089962
 H         3.326282        -0.648653        -1.289316
