19
Iteration:  3379charge 0 multiplicity 1
 C         0.212562        -0.597133        -0.711777
 C         1.373747         0.322105        -0.237720
 C         1.868943         0.602545         1.170931
 C         3.290807         0.816733         0.716392
 O         4.321029         0.242377         1.471506
 C         3.580325         2.295469         0.305175
 O         2.451948         2.538650        -0.647866
 C         1.993818         1.330728        -1.114613
 C         2.886624         0.154615        -0.643346
 H         0.384448        -1.594242        -0.226876
 H        -0.663493        -0.167696        -0.361084
 H         0.071660        -0.431083        -1.762746
 H         1.359580         1.355888         1.859643
 H         1.876242        -0.374650         1.796701
 H         4.478941        -0.618259         1.099920
 H         3.481778         3.069388         0.988991
 H         4.512732         2.651618        -0.158034
 H         1.719085         1.363531        -2.149006
 H         3.305004        -0.762240        -1.143394
