19
Iteration:  2711charge 0 multiplicity 1
 C         0.090158        -0.389993        -0.483290
 C         1.409718         0.267588        -0.327339
 C         1.841257         0.646539         1.170340
 C         3.295960         0.811861         0.705874
 O         4.447483         0.256403         1.444697
 C         3.487617         2.231250         0.261186
 O         2.383875         2.485679        -0.695162
 C         2.143149         1.212215        -1.242863
 C         2.978877         0.132111        -0.619315
 H        -0.095606        -1.228303         0.176522
 H        -0.663755         0.488687        -0.084030
 H        -0.338365        -0.638082        -1.462570
 H         1.394177         1.566982         1.522812
 H         1.581345        -0.226661         1.785283
 H         4.229630        -0.501571         2.055538
 H         3.331315         2.984208         1.099293
 H         4.525277         2.293988        -0.143117
 H         1.805116         1.138596        -2.304794
 H         3.354559        -0.606637        -1.280876
