19
Iteration:   728charge 0 multiplicity 1
 C         0.129692        -0.474961        -0.326141
 C         1.324751         0.409557        -0.114943
 C         1.853914         0.951503         1.271560
 C         3.264059         0.821316         0.698985
 O         4.245158         0.073390         1.363792
 C         3.602563         2.258599         0.157115
 O         2.682432         2.407558        -0.957545
 C         2.094028         1.168424        -1.257270
 C         2.752494         0.058068        -0.484278
 H        -0.006670        -1.423175         0.169050
 H        -0.856040        -0.004139        -0.140206
 H         0.114242        -0.629013        -1.370096
 H         1.716766         1.971271         1.697910
 H         1.601264         0.299514         2.133731
 H         5.112349         0.413329         1.042044
 H         3.263993         2.894773         0.977741
 H         4.572265         2.234693        -0.341240
 H         1.613934         1.222850        -2.284093
 H         3.147966        -0.911453        -0.796526
