19
Iteration:  1103
 C         0.126841        -0.401780        -0.539679
 C         1.415594         0.286687        -0.204874
 C         1.866765         0.648676         1.223509
 C         3.285538         0.803807         0.684150
 O         4.307917         0.234715         1.638786
 C         3.679530         2.103631        -0.017888
 O         2.502835         2.481715        -0.650404
 C         1.890554         1.319825        -1.195312
 C         2.867954         0.108712        -0.668041
 H         0.163205        -1.466829        -0.168499
 H        -0.797082         0.232398        -0.312132
 H         0.003546        -0.583222        -1.653806
 H         1.494861         1.574194         1.581819
 H         1.865402        -0.051565         2.078196
 H         4.838701         1.108503         1.685866
 H         4.112168         2.864284         0.643970
 H         4.460506         1.782668        -0.757909
 H         1.322066         1.336677        -2.153933
 H         3.345340        -0.618102        -1.193404
