19
Iteration:  1627
 C         0.228925        -0.521818        -0.627869
 C         1.360144         0.320995        -0.163556
 C         1.749003         0.679277         1.263994
 C         3.264089         0.795550         0.759967
 O         4.353143         0.072070         1.373752
 C         3.478930         2.436624         0.344373
 O         2.572807         2.545274        -0.843867
 C         2.050481         1.219248        -1.144686
 C         2.862833         0.151784        -0.554017
 H         0.253366        -1.538942        -0.145751
 H        -0.796004        -0.004794        -0.292541
 H         0.210828        -0.694835        -1.745697
 H         1.391379         1.600783         1.628634
 H         1.853781        -0.242319         1.839634
 H         4.956964        -0.309997         0.646638
 H         3.073406         3.195224         1.105971
 H         4.524133         2.550006         0.055195
 H         1.793148         1.282521        -2.184827
 H         3.367994        -0.613225        -0.985221
