19
Iteration:  4613charge 0 multiplicity 1
 C         0.175960        -0.609757        -0.576325
 C         1.364945         0.343106        -0.329333
 C         1.796286         0.701786         1.085021
 C         3.301008         0.772450         0.665943
 O         4.371632         0.234741         1.494010
 C         3.474958         2.275437         0.381175
 O         2.547615         2.532461        -0.570831
 C         2.109886         1.344001        -1.228405
 C         2.858501         0.133935        -0.701068
 H         0.501766        -1.552688        -0.223185
 H        -0.742586        -0.309395        -0.044932
 H        -0.142315        -0.710946        -1.661670
 H         1.504460         1.634029         1.640159
 H         1.522014        -0.146303         1.697770
 H         4.151182        -0.664393         1.660799
 H         3.138605         2.788680         1.300266
 H         4.441370         2.610190        -0.011918
 H         2.039286         1.279818        -2.327939
 H         3.283267        -0.645007        -1.424617
