19
Iteration:  4493charge 0 multiplicity 1
 C         0.094809        -0.514853        -0.534257
 C         1.366682         0.244963        -0.300613
 C         1.803687         0.430827         1.172379
 C         3.288179         0.864196         0.761323
 O         4.294797         0.221353         1.398717
 C         3.468160         2.385606         0.459277
 O         2.576510         2.547662        -0.781362
 C         2.142717         1.314342        -1.253417
 C         2.969661         0.246706        -0.649834
 H         0.103503        -1.282358         0.231960
 H        -0.805886         0.028772        -0.529132
 H         0.083387        -1.014515        -1.544647
 H         1.306067         1.016827         1.967901
 H         1.853442        -0.533196         1.656111
 H         4.181950        -0.762814         1.304398
 H         2.995565         3.012551         1.231182
 H         4.490316         2.788404         0.254224
 H         1.989955         1.378406        -2.308454
 H         3.635865        -0.505931        -1.068542
