19
Iteration:   179
 C         0.032759        -0.234130        -0.086287
 C         1.356167         0.368129        -0.030821
 C         1.865781         0.945572         1.257235
 C         3.259441         0.828079         0.652688
 O         4.244343         0.182673         1.366349
 C         3.589564         2.162898         0.054808
 O         2.799017         2.337794        -1.133685
 C         2.101837         1.099897        -1.226379
 C         2.733667         0.004260        -0.525078
 H         0.016761        -0.892920         0.735018
 H        -0.737259         0.521652        -0.017723
 H        -0.168595        -0.824278        -0.952887
 H         1.529562         1.950449         1.602422
 H         1.594609         0.202371         2.041502
 H         4.495510        -0.616559         0.912184
 H         3.346364         2.950567         0.800459
 H         4.614357         2.300960        -0.178500
 H         1.622823         1.065761        -2.191113
 H         3.108799        -1.004531        -0.708666
