19
Iteration:  4754charge 0 multiplicity 1
 C         0.259640        -0.491306        -0.580150
 C         1.413176         0.390079        -0.238318
 C         1.845137         0.606958         1.175398
 C         3.271778         0.762040         0.649566
 O         4.264328         0.219522         1.526563
 C         3.473412         2.225465         0.359869
 O         2.479885         2.515460        -0.668759
 C         2.045721         1.326585        -1.193920
 C         2.974049         0.168557        -0.791574
 H         0.415372        -1.476983        -0.242627
 H        -0.758496         0.003438        -0.275109
 H         0.186896        -0.481192        -1.731988
 H         1.413818         1.458360         1.698720
 H         1.837242        -0.190670         1.976076
 H         4.091597        -0.701724         1.537742
 H         3.229711         2.841864         1.214785
 H         4.468825         2.415643        -0.086008
 H         1.687142         1.320201        -2.271836
 H         3.503773        -0.720261        -1.176614
