19
Iteration:   694charge 0 multiplicity 1
 C        -0.006986        -0.413880        -0.334790
 C         1.331348         0.326992        -0.173818
 C         1.866027         0.772153         1.200873
 C         3.355540         0.794267         0.670017
 O         4.315788         0.254150         1.553141
 C         3.745124         2.114407        -0.049483
 O         2.608953         2.450841        -0.879318
 C         1.980100         1.242691        -1.201805
 C         2.773834         0.054655        -0.536439
 H        -0.000636        -1.442843        -0.035040
 H        -0.800445         0.213403         0.120559
 H        -0.260012        -0.386052        -1.367899
 H         1.426272         1.719959         1.633910
 H         1.681595        -0.153831         1.807573
 H         4.316592         0.755764         2.367072
 H         4.176576         2.825822         0.653692
 H         4.676635         2.027979        -0.647964
 H         1.624676         1.375722        -2.192324
 H         3.204209        -0.834242        -1.084011
