19
Iteration:  4836charge 0 multiplicity 1
 C         0.200659        -0.396684        -0.695749
 C         1.458652         0.312153        -0.279849
 C         1.892413         0.611760         1.232989
 C         3.344649         0.794547         0.692675
 O         4.292087         0.289453         1.521212
 C         3.507503         2.197917         0.293448
 O         2.400502         2.496439        -0.574846
 C         2.107465         1.272131        -1.275606
 C         2.873531         0.077041        -0.718038
 H        -0.039106        -1.376903        -0.099782
 H        -0.630527         0.242336        -0.472066
 H         0.303016        -0.661614        -1.739193
 H         1.450234         1.534167         1.698855
 H         1.947484        -0.271432         1.832764
 H         4.017679        -0.535381         1.975772
 H         3.365736         2.896592         1.141380
 H         4.451269         2.558962        -0.076752
 H         1.376311         1.311665        -2.084219
 H         3.438277        -0.613684        -1.378404
