19
Iteration:   590
 C         0.071099        -0.350477        -0.292627
 C         1.355279         0.443219        -0.067649
 C         1.862398         0.761772         1.401119
 C         3.251755         0.748514         0.660882
 O         4.292440         0.208099         1.358730
 C         3.599329         2.226955         0.115650
 O         2.788706         2.367860        -1.082831
 C         2.017153         1.214795        -1.215431
 C         2.705109         0.017388        -0.604863
 H        -0.196996        -0.924075         0.636564
 H        -0.746827         0.264738        -0.606848
 H         0.455985        -1.061608        -1.072851
 H         1.551645         1.733134         1.889554
 H         1.701273        -0.146124         2.053003
 H         4.728068         0.751873         2.034171
 H         3.080867         2.875587         0.809308
 H         4.656877         2.295587         0.043328
 H         1.506388         1.295911        -2.249160
 H         3.004517        -0.971359        -0.999945
