19
Iteration:   540
 C        -0.077454        -0.308256        -0.346843
 C         1.344053         0.334423        -0.108726
 C         1.830148         0.867034         1.201420
 C         3.396740         0.830807         0.587127
 O         4.324142         0.306637         1.505277
 C         3.734008         2.203205        -0.047981
 O         2.555877         2.388789        -0.772384
 C         2.116744         1.068193        -1.181388
 C         2.799464        -0.026218        -0.568055
 H        -0.220882        -0.937312         0.507385
 H        -0.786322         0.552602        -0.118785
 H        -0.227431        -0.746225        -1.341653
 H         1.359424         1.799557         1.514542
 H         1.761734         0.209748         2.075105
 H         4.266692        -0.692110         1.520686
 H         3.898548         3.026673         0.638661
 H         4.578014         1.911671        -0.732616
 H         1.710024         1.058092        -2.228380
 H         3.239220        -0.857465        -1.052267
