19
Iteration:  3473
 C         0.237053        -0.532237        -0.479811
 C         1.502567         0.227951        -0.228934
 C         1.702979         0.548410         1.191392
 C         3.260822         0.850562         0.644390
 O         4.272984         0.050061         1.300761
 C         3.405997         2.343079         0.419067
 O         2.490118         2.592660        -0.710058
 C         2.128193         1.312113        -1.203615
 C         3.017762         0.261883        -0.728109
 H         0.155249        -1.308256         0.264437
 H        -0.720122         0.124658        -0.516780
 H         0.199971        -0.885837        -1.497486
 H         1.021821         1.202915         1.715124
 H         1.928640        -0.282028         1.790224
 H         4.783443         0.356134         2.114123
 H         3.031408         3.053884         1.225874
 H         4.404755         2.588820         0.376147
 H         1.677790         1.363872        -2.186023
 H         3.621259        -0.559627        -1.185232
