19
Iteration:  4059charge 0 multiplicity 1
 C         0.268670        -0.549904        -0.617415
 C         1.384255         0.372930        -0.152058
 C         1.737492         0.550851         1.305754
 C         3.219748         0.759245         0.633115
 O         4.342593         0.347509         1.327778
 C         3.376845         2.287364         0.548630
 O         2.764638         2.515304        -0.862680
 C         2.062691         1.340428        -1.183598
 C         2.788904         0.090469        -0.694105
 H         0.365999        -1.505286        -0.000491
 H        -0.705050        -0.165189        -0.341968
 H         0.224571        -0.723859        -1.744371
 H         1.372792         1.469795         1.805033
 H         1.480648        -0.411331         1.848576
 H         4.547997        -0.556961         1.343349
 H         3.091193         2.807470         1.504795
 H         4.441975         2.468622         0.416123
 H         1.603753         1.463396        -2.130587
 H         3.184079        -0.774650        -1.298653
