19
Iteration:   816charge 0 multiplicity 1
 C        -0.085684        -0.238671        -0.487132
 C         1.358623         0.284906        -0.201264
 C         1.919032         0.773061         1.199256
 C         3.377482         0.786200         0.654104
 O         4.387377         0.277615         1.610311
 C         3.657583         2.135220         0.023488
 O         2.453539         2.418135        -0.748686
 C         2.008435         1.097802        -1.203079
 C         2.865827         0.013755        -0.562912
 H        -0.346688        -1.087254         0.188523
 H        -0.946443         0.495689        -0.394839
 H        -0.173000        -0.567494        -1.505805
 H         1.581079         1.700007         1.788712
 H         1.933447         0.002070         2.026895
 H         5.321985         0.718907         1.549195
 H         3.844213         3.017322         0.675370
 H         4.466315         2.053102        -0.743699
 H         1.751674         1.100916        -2.324456
 H         3.272434        -0.720010        -1.173007
