19
Iteration:  2928charge 0 multiplicity 1
 C         0.224207        -0.425901        -0.553922
 C         1.371283         0.387271        -0.176938
 C         1.830320         0.678558         1.274854
 C         3.291436         0.757613         0.701004
 O         4.334729         0.190467         1.363249
 C         3.426661         2.317650         0.327856
 O         2.525009         2.541100        -0.800208
 C         2.043710         1.215029        -1.186051
 C         2.944125         0.083985        -0.634152
 H         0.006087        -1.374078         0.130701
 H        -0.702395         0.161397        -0.521346
 H         0.355279        -0.805198        -1.549971
 H         1.325504         1.488026         1.817701
 H         1.770003        -0.286625         1.925418
 H         4.527660        -0.707611         1.107108
 H         2.980183         2.952458         1.181808
 H         4.507081         2.525708         0.106583
 H         1.930331         1.093688        -2.261783
 H         3.343753        -0.832644        -1.044359
