19
Iteration:    24charge 0 multiplicity 1
 C        -0.155486        -0.355693        -0.057556
 C         1.137880         0.526030        -0.050453
 C         1.951041         0.868230         1.242669
 C         3.333461         0.798883         0.566484
 O         4.261772         0.223612         1.453266
 C         3.817264         2.204757         0.002124
 O         2.872015         2.335589        -1.121420
 C         2.055080         1.085952        -1.241038
 C         2.583767        -0.034054        -0.519555
 H        -0.077888        -0.881954         0.868081
 H        -1.150666         0.138697        -0.000270
 H        -0.131102        -1.081340        -0.858290
 H         1.718268         1.724845         1.878085
 H         1.897851         0.006508         1.896605
 H         5.104349         0.761585         1.347024
 H         3.594447         3.044792         0.683204
 H         4.864162         2.230264        -0.295225
 H         1.786667         1.050469        -2.381356
 H         2.957843        -0.994805        -0.840537
