19
Iteration:   391charge 0 multiplicity 1
 C         0.014530        -0.199159        -0.338808
 C         1.409493         0.259715        -0.076255
 C         1.863722         0.929705         1.219483
 C         3.306751         0.731663         0.684939
 O         4.340091         0.264922         1.477796
 C         3.684056         2.056488        -0.039727
 O         2.514716         2.407729        -0.854170
 C         1.971801         1.146194        -1.158256
 C         2.780909        -0.014341        -0.526967
 H        -0.326742        -0.902050         0.387530
 H        -0.521638         0.671170        -0.416058
 H        -0.107303        -0.553667        -1.323392
 H         1.680540         1.967290         1.509455
 H         1.601261         0.360376         2.136102
 H         5.121344         0.299805         0.910341
 H         4.225091         2.904750         0.406904
 H         4.503433         1.607548        -0.695896
 H         1.769177         0.868456        -2.252288
 H         3.373920        -0.834797        -0.872652
