19
Iteration:  4394
 C         0.277552        -0.546528        -0.650945
 C         1.441420         0.337822        -0.187908
 C         1.804373         0.589631         1.163398
 C         3.223859         0.809819         0.751461
 O         4.298255         0.198489         1.462520
 C         3.553411         2.275994         0.309080
 O         2.484467         2.520797        -0.678152
 C         1.994470         1.378613        -1.156890
 C         2.935156         0.216369        -0.680825
 H         0.468956        -1.646711        -0.411601
 H        -0.757975        -0.252053        -0.332343
 H         0.304069        -0.600204        -1.807239
 H         1.150730         1.357998         1.664783
 H         1.607868        -0.359588         1.697092
 H         4.175926        -0.738404         1.484026
 H         3.546142         3.052960         1.079622
 H         4.585634         2.199814        -0.155806
 H         1.429137         1.255042        -2.139933
 H         3.581762        -0.424968        -1.253796
