19
Iteration:   804
 C        -0.053918        -0.288853        -0.465943
 C         1.271901         0.337447        -0.169679
 C         1.929980         0.705609         1.187091
 C         3.387818         0.774435         0.703271
 O         4.402994         0.260662         1.601203
 C         3.678182         2.163206        -0.044957
 O         2.493503         2.441930        -0.787698
 C         2.040492         1.164455        -1.136667
 C         2.816344        -0.009324        -0.621399
 H        -0.328237        -0.998380         0.353355
 H        -0.742521         0.662968        -0.362579
 H        -0.148090        -0.825699        -1.401521
 H         1.393930         1.678134         1.569698
 H         1.784842        -0.263514         1.779813
 H         4.753846         1.150420         1.894171
 H         3.772037         2.972329         0.747266
 H         4.618148         2.026452        -0.646467
 H         1.720791         1.003956        -2.255650
 H         3.361435        -0.738879        -1.176007
