19
Iteration:  2447charge 0 multiplicity 1
 C         0.187813        -0.667144        -0.379609
 C         1.354822         0.286652        -0.254526
 C         1.836603         0.646317         1.070764
 C         3.301197         0.829867         0.615219
 O         4.307011         0.222328         1.409053
 C         3.545254         2.309612         0.375282
 O         2.616315         2.602238        -0.675735
 C         2.082338         1.332012        -1.191852
 C         2.803813         0.140934        -0.775965
 H         0.253861        -1.520920         0.402093
 H        -0.837147        -0.125556        -0.217761
 H         0.072341        -1.194018        -1.296196
 H         1.290685         1.398369         1.733264
 H         1.982834        -0.246664         1.738977
 H         4.057609        -0.731641         1.635599
 H         3.234748         2.972184         1.189007
 H         4.550223         2.660362        -0.002172
 H         1.505949         1.759243        -2.077129
 H         3.160166        -0.612381        -1.421275
