19
Iteration:  2369charge 0 multiplicity 1
 C         0.128449        -0.408342        -0.665454
 C         1.380133         0.218449        -0.126668
 C         1.867171         0.643881         1.303529
 C         3.276598         0.806788         0.676839
 O         4.457731         0.356118         1.323702
 C         3.458429         2.196345         0.310100
 O         2.545106         2.501696        -0.720039
 C         2.007843         1.225557        -1.089189
 C         2.856070         0.103860        -0.663434
 H         0.003749        -1.545716        -0.373156
 H        -0.885275         0.075668        -0.383803
 H         0.132854        -0.419503        -1.755702
 H         1.412604         1.595279         1.709058
 H         1.817705        -0.174316         2.075831
 H         4.281541        -0.575170         1.631126
 H         3.229651         2.963297         1.009695
 H         4.450547         2.356577        -0.118838
 H         1.735294         1.223878        -2.139522
 H         3.464753        -0.575929        -1.325110
