19
Iteration:  2216charge 0 multiplicity 1
 C         0.153414        -0.577568        -0.489168
 C         1.326147         0.252548        -0.193728
 C         1.906407         0.590278         1.203393
 C         3.236333         0.844432         0.633431
 O         4.336412         0.270728         1.438175
 C         3.581122         2.284258         0.311087
 O         2.552935         2.556472        -0.700283
 C         2.022122         1.334514        -1.184079
 C         2.821111         0.151018        -0.730293
 H        -0.023109        -1.499460         0.117214
 H        -0.658191         0.188851        -0.405310
 H         0.260880        -0.927288        -1.457852
 H         1.363866         1.377786         1.810834
 H         1.982863        -0.324723         1.809333
 H         4.498581        -0.680924         1.330959
 H         3.538338         3.027967         1.082977
 H         4.563712         2.415434        -0.158233
 H         1.675864         1.309247        -2.223737
 H         3.384582        -0.584388        -1.382664
