19
Iteration:  1021
 C         0.103639        -0.476451        -0.364599
 C         1.333608         0.404500        -0.165169
 C         1.865426         0.618063         1.326713
 C         3.189655         0.773603         0.689069
 O         4.255889         0.249685         1.438545
 C         3.500469         2.261549         0.281052
 O         2.787226         2.496071        -1.011837
 C         2.090358         1.262242        -1.237736
 C         2.809681         0.090903        -0.635269
 H        -0.066888        -1.309331         0.336786
 H        -0.827607         0.147804        -0.063063
 H        -0.109503        -0.800421        -1.412721
 H         1.531240         1.420130         2.030290
 H         1.916854        -0.365366         1.802688
 H         5.018827         0.060953         0.786322
 H         3.104414         3.049197         0.997631
 H         4.634385         2.356173         0.149666
 H         1.557381         1.222893        -2.164913
 H         3.220383        -0.841283        -1.091831
