19
Iteration:   666
 C        -0.040937        -0.313481        -0.358458
 C         1.289523         0.320568        -0.188825
 C         1.896936         0.804315         1.210307
 C         3.351334         0.769814         0.599304
 O         4.322920         0.438151         1.598225
 C         3.782744         2.108043        -0.031104
 O         2.555982         2.416457        -0.769635
 C         2.040977         1.119563        -1.179570
 C         2.801779        -0.049911        -0.649013
 H        -0.071741        -1.369286         0.083800
 H        -0.660276         0.403068         0.181645
 H        -0.389387        -0.370588        -1.451358
 H         1.599432         1.761328         1.642062
 H         1.778585        -0.076668         1.847149
 H         4.200611        -0.435916         2.011654
 H         4.060174         2.803729         0.816935
 H         4.614443         2.071316        -0.746056
 H         1.544007         1.296284        -2.209604
 H         3.175272        -0.779099        -1.328804
