19
Iteration:  4105charge 0 multiplicity 1
 C         0.088511        -0.443771        -0.570946
 C         1.377206         0.301232        -0.295811
 C         1.862204         0.492609         1.162450
 C         3.342074         0.768827         0.733029
 O         4.364051         0.217982         1.511772
 C         3.470565         2.345280         0.300693
 O         2.420160         2.598684        -0.722008
 C         2.112656         1.235464        -1.198063
 C         3.022964         0.172973        -0.686212
 H         0.111396        -1.453804        -0.171828
 H        -0.858649         0.077004        -0.123984
 H         0.001992        -0.452839        -1.664723
 H         1.432486         1.331219         1.715600
 H         1.785660        -0.525195         1.763327
 H         4.067241        -0.645983         1.881005
 H         3.165375         3.072376         1.082166
 H         4.523776         2.536794         0.051078
 H         1.846725         1.232097        -2.275222
 H         3.445197        -0.620159        -1.300084
