19
Iteration:  1884charge 0 multiplicity 1
 C         0.153592        -0.646788        -0.591632
 C         1.300723         0.370404        -0.173215
 C         1.785188         0.564583         1.297584
 C         3.197296         0.773172         0.712297
 O         4.424017         0.283446         1.365209
 C         3.594851         2.221740         0.268923
 O         2.661937         2.572998        -0.867639
 C         1.984780         1.402345        -1.109043
 C         2.787608         0.237854        -0.630952
 H         0.279659        -1.558588         0.133431
 H        -0.849161        -0.229236        -0.329495
 H         0.433369        -1.200345        -1.556776
 H         1.419825         1.301082         1.983817
 H         1.963608        -0.438352         1.822978
 H         4.047756        -0.347064         2.077663
 H         3.532445         3.001161         1.039984
 H         4.606255         2.012232        -0.160517
 H         1.682103         1.337379        -2.173457
 H         3.241742        -0.562229        -1.160502
