19
Iteration:  4371charge 0 multiplicity 1
 C         0.218818        -0.701040        -0.562008
 C         1.404625         0.277122        -0.304661
 C         1.852532         0.683828         1.227996
 C         3.270528         0.763588         0.593591
 O         4.276385         0.197727         1.476555
 C         3.457122         2.340613         0.439633
 O         2.593567         2.634534        -0.677647
 C         2.153881         1.392663        -1.228824
 C         2.776668         0.153604        -0.730036
 H         0.268450        -1.659757        -0.020455
 H        -0.719300        -0.062857        -0.391544
 H         0.126919        -1.000711        -1.645910
 H         1.414214         1.434802         1.879410
 H         1.705127        -0.315818         1.704989
 H         4.400187        -0.799244         1.332880
 H         3.089582         2.738362         1.389479
 H         4.517838         2.712059         0.293063
 H         1.732516         1.386686        -2.267774
 H         3.316847        -0.579539        -1.349383
