19
Iteration:  4560
 C         0.169977        -0.505805        -0.811008
 C         1.412436         0.263672        -0.240178
 C         1.769755         0.519002         1.257890
 C         3.255149         0.825046         0.785954
 O         4.411854         0.258092         1.522387
 C         3.669639         2.250298         0.151421
 O         2.402279         2.596591        -0.596489
 C         2.010494         1.344094        -1.153894
 C         2.888960         0.160546        -0.595006
 H         0.208911        -1.577682        -0.521228
 H        -0.752656        -0.044491        -0.576521
 H         0.186316        -0.491562        -1.965078
 H         1.118527         1.291996         1.771441
 H         1.744836        -0.379474         1.856639
 H         4.131481        -0.513855         1.985084
 H         3.967297         3.099436         0.800965
 H         4.501485         2.141021        -0.598122
 H         1.635596         1.203498        -2.175953
 H         3.493345        -0.593019        -1.185466
