19
Iteration:  1172
 C         0.174579        -0.440868        -0.401287
 C         1.348772         0.318200        -0.190381
 C         1.768981         0.717005         1.290001
 C         3.245477         0.777337         0.735492
 O         4.375963         0.086060         1.230768
 C         3.406414         2.318047         0.332233
 O         2.640062         2.558109        -0.909618
 C         2.100372         1.211142        -1.231991
 C         2.901671         0.118912        -0.580413
 H         0.131865        -1.263301         0.340720
 H        -0.705923         0.165044        -0.430087
 H         0.081624        -0.943828        -1.433832
 H         1.262888         1.658322         1.640680
 H         1.560511         0.075131         2.151721
 H         4.324254        -0.253779         2.172867
 H         2.967997         3.055130         0.988913
 H         4.479714         2.505979         0.212237
 H         1.951135         1.181588        -2.294580
 H         3.718782        -0.644253        -1.012361
