19
Iteration:  4166charge 0 multiplicity 1
 C         0.161179        -0.589053        -0.770305
 C         1.318839         0.323529        -0.304700
 C         1.750929         0.621692         1.183994
 C         3.352638         0.790807         0.720347
 O         4.487530         0.330384         1.454010
 C         3.660762         2.210389         0.284460
 O         2.395748         2.549076        -0.550479
 C         2.005507         1.322695        -1.184573
 C         2.839155         0.155568        -0.552745
 H         0.050721        -1.531872        -0.139605
 H        -0.722404        -0.039012        -0.746271
 H         0.219349        -0.942507        -1.832775
 H         1.369700         1.468722         1.840583
 H         1.516226        -0.287899         1.671368
 H         4.309949        -0.587110         1.732318
 H         3.583618         2.933241         1.111926
 H         4.679575         2.248525        -0.185266
 H         1.981984         1.370833        -2.244456
 H         3.190298        -0.637414        -1.238190
