19
Iteration:  2965charge 0 multiplicity 1
 C         0.034497        -0.510388        -0.482170
 C         1.432553         0.225606        -0.277149
 C         1.842132         0.575457         1.091745
 C         3.309565         0.771087         0.581817
 O         4.287369         0.407648         1.560971
 C         3.651921         2.201407         0.203342
 O         2.520899         2.599542        -0.562405
 C         1.994067         1.254465        -1.161767
 C         2.941788         0.110484        -0.708363
 H        -0.091846        -1.400827         0.066465
 H        -0.659323         0.366560        -0.288706
 H        -0.182303        -0.770530        -1.559743
 H         1.291852         1.449308         1.553027
 H         1.740912        -0.423813         1.616510
 H         4.284922        -0.580843         1.500377
 H         3.735757         2.905431         1.043878
 H         4.598358         2.325349        -0.330231
 H         1.858591         1.270716        -2.249747
 H         3.392457        -0.700641        -1.353264
