19
Iteration:  3036
 C         0.229883        -0.579165        -0.574167
 C         1.361193         0.257468        -0.118388
 C         1.812371         0.715826         1.325102
 C         3.228590         0.855970         0.762554
 O         4.262218         0.151878         1.187846
 C         3.494379         2.337727         0.338169
 O         2.661239         2.523740        -0.794618
 C         2.068678         1.201314        -1.224221
 C         2.864329         0.199167        -0.602594
 H         0.331928        -1.686565        -0.381769
 H        -0.628247        -0.024522        -0.308157
 H         0.142806        -0.583826        -1.638119
 H         1.406759         1.556023         1.892842
 H         1.856147        -0.134266         1.961202
 H         4.073737         0.020932         2.163200
 H         3.285077         3.039245         1.169028
 H         4.515709         2.582049         0.084979
 H         1.586231         1.380733        -2.211412
 H         3.323659        -0.737958        -0.977196
