19
Iteration:   347charge 0 multiplicity 1
 C        -0.065568        -0.364386        -0.248777
 C         1.232589         0.444535        -0.091495
 C         1.971922         0.813133         1.252505
 C         3.345749         0.808962         0.648580
 O         4.370098         0.196858         1.489168
 C         3.741552         2.143603        -0.030128
 O         2.776707         2.434822        -1.054125
 C         1.903690         1.127148        -1.202060
 C         2.649938         0.018149        -0.519779
 H        -0.050500        -1.140114         0.498591
 H        -0.903924         0.236603        -0.162501
 H        -0.182691        -0.739856        -1.234221
 H         1.534986         1.713184         1.666053
 H         1.918557         0.148846         2.116857
 H         4.274968         0.675597         2.313287
 H         3.706592         2.826885         0.835349
 H         4.775152         2.071885        -0.324947
 H         1.677656         1.123256        -2.342421
 H         2.928865        -0.840828        -1.112073
