19
Iteration:  4176
 C         0.241549        -0.580317        -0.702824
 C         1.349075         0.364355        -0.242305
 C         1.740448         0.623220         1.208416
 C         3.211519         0.785255         0.742490
 O         4.434732         0.271676         1.396955
 C         3.566864         2.276931         0.320766
 O         2.481464         2.538644        -0.569321
 C         2.079335         1.313623        -1.227161
 C         2.824431         0.157532        -0.628347
 H         0.157685        -1.478072        -0.009463
 H        -0.735925        -0.119077        -0.725002
 H         0.507081        -0.895246        -1.746672
 H         1.137140         1.436367         1.739811
 H         1.835885        -0.289426         1.807755
 H         4.476736        -0.725792         1.447429
 H         3.598253         2.939759         1.188327
 H         4.487562         2.433012        -0.295402
 H         1.861821         1.310056        -2.270170
 H         3.233374        -0.769433        -1.088999
