19
Iteration:  4720charge 0 multiplicity 1
 C         0.074841        -0.439089        -0.676390
 C         1.414023         0.219063        -0.335398
 C         1.720224         0.532855         1.079206
 C         3.305468         0.764368         0.665614
 O         4.376843         0.368260         1.472643
 C         3.571293         2.218325         0.262217
 O         2.430836         2.556060        -0.497557
 C         2.097133         1.323533        -1.111013
 C         3.007771         0.080641        -0.615476
 H        -0.227184        -1.355629        -0.168241
 H        -0.811455         0.280658        -0.281207
 H        -0.160641        -0.658106        -1.777498
 H         1.180604         1.390979         1.406726
 H         2.008653        -0.299372         1.842971
 H         4.097274        -0.496550         1.761713
 H         3.684689         2.964963         1.029819
 H         4.507675         2.422988        -0.313971
 H         2.120142         1.294386        -2.250955
 H         3.766907        -0.641105        -1.131980
