19
Iteration:  3636charge 0 multiplicity 1
 C         0.161716        -0.612807        -0.712741
 C         1.283906         0.295572        -0.211602
 C         1.763359         0.497209         1.305443
 C         3.334008         0.768055         0.765362
 O         4.426379         0.271182         1.381713
 C         3.480779         2.355966         0.367641
 O         2.652716         2.589509        -0.803044
 C         2.065207         1.333224        -1.163704
 C         2.777607         0.215489        -0.604352
 H         0.230634        -1.383521        -0.007334
 H        -0.916537        -0.211148        -0.739377
 H         0.304939        -0.907992        -1.752644
 H         1.131482         1.257731         1.911318
 H         1.760409        -0.447306         1.918290
 H         4.241154        -0.643205         1.518074
 H         3.220837         3.094823         1.093257
 H         4.545393         2.525097         0.192125
 H         1.779580         1.231624        -2.203639
 H         3.423333        -0.426204        -1.207597
