19
Iteration:  1524
 C         0.122509        -0.399383        -0.603595
 C         1.445533         0.258496        -0.229404
 C         1.828418         0.691608         1.167425
 C         3.319254         0.773724         0.634823
 O         4.357675         0.218189         1.611292
 C         3.619288         2.243321         0.212292
 O         2.339317         2.515291        -0.629541
 C         2.043058         1.226553        -1.159590
 C         2.876031         0.049122        -0.702392
 H        -0.059597        -1.377344        -0.063847
 H        -0.774971         0.269298        -0.452298
 H         0.223359        -0.651091        -1.690087
 H         1.356878         1.678422         1.412134
 H         1.505078        -0.004153         1.917444
 H         5.221611         0.419763         1.262233
 H         3.824865         2.814557         1.126312
 H         4.407627         2.369578        -0.504176
 H         1.920562         1.347454        -2.204780
 H         3.543465        -0.646871        -1.396650
