19
Iteration:  1230charge 0 multiplicity 1
 C         0.109358        -0.431565        -0.595664
 C         1.401780         0.272656        -0.222654
 C         1.790745         0.562421         1.250622
 C         3.323395         0.717880         0.744524
 O         4.351116         0.428254         1.602272
 C         3.614673         2.134604         0.077060
 O         2.538242         2.542970        -0.675126
 C         1.973052         1.316347        -1.168582
 C         2.822328         0.063789        -0.715518
 H         0.009680        -1.447102        -0.269882
 H        -0.617492         0.103046        -0.019220
 H         0.008155        -0.348611        -1.631877
 H         1.327921         1.535594         1.568167
 H         1.806473        -0.310473         1.906814
 H         5.115388        -0.031325         1.236263
 H         3.876784         2.878700         0.825984
 H         4.488768         1.902123        -0.469177
 H         1.605357         1.431395        -2.230561
 H         3.101100        -0.797209        -1.242020
