19
Iteration:  2033
 C         0.181503        -0.586798        -0.436985
 C         1.352572         0.373194        -0.225816
 C         1.870794         0.611965         1.259921
 C         3.255517         0.783519         0.681983
 O         4.323606         0.179710         1.266444
 C         3.473040         2.313938         0.303835
 O         2.588520         2.604762        -0.747101
 C         2.059937         1.258123        -1.160494
 C         2.898684         0.174047        -0.669557
 H         0.233909        -1.333861         0.372556
 H        -0.801503        -0.058169        -0.524101
 H         0.381571        -1.067394        -1.445500
 H         1.531487         1.455505         1.889542
 H         1.757695        -0.330906         1.772028
 H         3.788498        -0.551482         1.727664
 H         3.205377         2.984862         1.155196
 H         4.501577         2.576485         0.144539
 H         1.707109         1.337618        -2.240676
 H         3.379176        -0.609949        -1.268602
