19
Iteration:  2600
 C         0.247518        -0.574529        -0.514655
 C         1.381782         0.322949        -0.188461
 C         1.823750         0.699837         1.240282
 C         3.240137         0.758300         0.675591
 O         4.405251         0.153508         1.286630
 C         3.453122         2.377277         0.376393
 O         2.652251         2.569920        -0.812801
 C         1.958871         1.272902        -1.168905
 C         2.832207         0.122890        -0.640393
 H         0.261145        -1.311256         0.275084
 H        -0.737778         0.050373        -0.355231
 H         0.251631        -1.020307        -1.498036
 H         1.326061         1.650396         1.507785
 H         1.627327        -0.077048         2.044128
 H         3.995846        -0.537798         1.820349
 H         3.000404         2.893922         1.270349
 H         4.572396         2.518237         0.224693
 H         1.614472         1.349621        -2.162894
 H         3.308744        -0.759785        -1.142427
