19
Iteration:  3217
 C         0.226696        -0.572192        -0.413293
 C         1.420756         0.296136        -0.282651
 C         1.896633         0.590892         1.185019
 C         3.275207         0.787532         0.656708
 O         4.165240         0.075937         1.476039
 C         3.490101         2.320694         0.356635
 O         2.546762         2.584928        -0.740975
 C         2.078443         1.362862        -1.260092
 C         2.855724         0.195591        -0.713825
 H         0.429848        -1.503498         0.094614
 H        -0.749687        -0.162044        -0.112672
 H         0.078123        -0.799220        -1.523079
 H         1.503549         1.318763         1.820030
 H         1.862238        -0.364819         1.773955
 H         5.028918         0.550761         1.268271
 H         3.326152         3.162021         1.105054
 H         4.497847         2.559443         0.042146
 H         1.644018         1.433051        -2.270035
 H         3.435095        -0.467528        -1.366044
