19
Iteration:  2608charge 0 multiplicity 1
 C         0.263856        -0.576786        -0.528177
 C         1.313426         0.380496        -0.141207
 C         1.821715         0.692378         1.264722
 C         3.242921         0.801210         0.681878
 O         4.362469         0.196234         1.235198
 C         3.429264         2.305266         0.363777
 O         2.688883         2.547219        -0.797680
 C         2.083881         1.263650        -1.159473
 C         2.783460         0.142021        -0.666548
 H         0.299333        -1.503520         0.198310
 H        -0.784202        -0.183851        -0.399420
 H         0.402727        -1.114129        -1.532273
 H         1.393948         1.520227         1.784331
 H         1.595880        -0.025465         2.069216
 H         4.107796        -0.543409         1.836473
 H         3.082608         2.860444         1.236551
 H         4.465695         2.580028         0.170745
 H         1.539400         1.264692        -2.119525
 H         3.201143        -0.757422        -1.102691
