19
Iteration:   609
 C         0.012318        -0.357619        -0.360128
 C         1.222947         0.398016        -0.084563
 C         1.901813         0.808544         1.261974
 C         3.279498         0.920179         0.688121
 O         4.336140         0.048582         1.378687
 C         3.558267         2.315767         0.146110
 O         2.781305         2.377485        -1.064873
 C         2.051225         1.090117        -1.162861
 C         2.742883         0.073923        -0.458540
 H        -0.214701        -0.963708         0.594516
 H        -0.908469         0.297539        -0.472101
 H         0.203251        -0.927442        -1.291826
 H         1.469411         1.593480         1.858229
 H         1.971536         0.009077         2.007305
 H         5.173360         0.595828         1.267057
 H         3.196613         3.089566         0.899209
 H         4.524629         2.491748        -0.291864
 H         1.745234         1.009230        -2.189589
 H         3.114994        -0.927882        -0.839266
