19
Iteration:  2362charge 0 multiplicity 1
 C         0.101149        -0.451702        -0.606707
 C         1.356542         0.255606        -0.145814
 C         1.799230         0.595324         1.285099
 C         3.320715         0.765123         0.715973
 O         4.473033         0.347343         1.338864
 C         3.460380         2.223251         0.337612
 O         2.559614         2.532568        -0.778644
 C         1.984363         1.261088        -1.164815
 C         2.916770         0.109028        -0.680404
 H         0.096650        -1.442795        -0.128225
 H        -0.806149         0.100172        -0.294546
 H         0.194458        -0.387314        -1.679929
 H         1.374256         1.577781         1.630403
 H         1.731599        -0.250653         1.978223
 H         4.396131        -0.567873         1.610318
 H         3.228933         2.877158         1.212123
 H         4.518349         2.337628         0.094955
 H         1.441055         1.334569        -2.162049
 H         3.418506        -0.661941        -1.185158
