19
Iteration:   209
 C        -0.086863        -0.232706        -0.278176
 C         1.261601         0.385892        -0.051972
 C         1.903202         0.994639         1.233891
 C         3.361449         0.788218         0.671001
 O         4.454310         0.242706         1.350520
 C         3.700933         2.138816         0.035188
 O         2.647029         2.309271        -0.972184
 C         2.040136         1.052440        -1.214067
 C         2.720059        -0.036403        -0.510720
 H        -0.316343        -0.855029         0.602174
 H        -0.903638         0.538388        -0.280439
 H        -0.105120        -0.842326        -1.192942
 H         1.668992         2.038708         1.620697
 H         1.539575         0.391500         2.085009
 H         4.176694        -0.275033         2.154360
 H         3.530123         2.910574         0.794418
 H         4.703438         2.248018        -0.475052
 H         1.611263         1.023017        -2.262688
 H         3.058765        -1.025864        -0.800617
