19
Iteration:   245
 C        -0.024174        -0.191329        -0.337398
 C         1.343225         0.387193         0.026380
 C         1.887003         0.765181         1.330416
 C         3.338847         0.770274         0.652697
 O         4.285549         0.340611         1.487599
 C         3.830375         2.004415        -0.267531
 O         2.628483         2.382847        -0.859734
 C         1.977073         1.138119        -1.155817
 C         2.684565        -0.022960        -0.581010
 H        -0.200917        -0.985606         0.323529
 H        -0.815426         0.523652        -0.207072
 H        -0.081267        -0.632167        -1.313201
 H         1.562973         1.732512         1.760642
 H         1.991338        -0.123426         1.996988
 H         4.390529         1.148474         2.077103
 H         4.302017         2.824174         0.314612
 H         4.574873         1.623484        -0.956191
 H         1.547352         1.130519        -2.087694
 H         3.040133        -0.951715        -1.034017
