19
Iteration:  4050
 C         0.264701        -0.550459        -0.675198
 C         1.320522         0.376784        -0.200262
 C         1.791147         0.573170         1.371638
 C         3.240055         0.727436         0.696206
 O         4.389822         0.317669         1.387094
 C         3.409318         2.237602         0.456508
 O         2.719293         2.534213        -0.868916
 C         2.036814         1.349395        -1.218849
 C         2.758955         0.155257        -0.653111
 H         0.412632        -1.498832        -0.160107
 H        -0.787260        -0.142496        -0.514567
 H         0.366741        -0.739331        -1.762066
 H         1.408995         1.325040         2.071492
 H         1.863208        -0.428214         1.955643
 H         4.405084        -0.624733         1.428513
 H         2.904582         2.915529         1.164050
 H         4.459737         2.421141         0.459540
 H         1.506635         1.480564        -2.139922
 H         3.241407        -0.675280        -1.187922
