19
Iteration:   383charge 0 multiplicity 1
 C         0.031873        -0.216687        -0.346890
 C         1.333598         0.334143        -0.075816
 C         1.883687         0.884853         1.297278
 C         3.278006         0.822721         0.680248
 O         4.331961         0.295201         1.468534
 C         3.705382         1.961580        -0.061790
 O         2.580928         2.419229        -0.792973
 C         1.963813         1.124534        -1.250107
 C         2.781162        -0.047249        -0.565684
 H        -0.357170        -0.945627         0.404505
 H        -0.646362         0.682589        -0.284410
 H        -0.049416        -0.746269        -1.324052
 H         1.658189         1.935917         1.415824
 H         1.825856         0.181621         2.100758
 H         5.163114         0.704584         1.241571
 H         4.079624         2.853616         0.406839
 H         4.432648         1.668691        -0.779195
 H         1.714074         0.918192        -2.225057
 H         3.216947        -0.975082        -0.952383
