19
Iteration:  3195
 C         0.171792        -0.658057        -0.435672
 C         1.318690         0.317609        -0.221763
 C         1.811813         0.537110         1.162221
 C         3.271978         0.870420         0.605222
 O         4.295583         0.069434         1.384493
 C         3.497395         2.328842         0.351678
 O         2.692709         2.637955        -0.775543
 C         2.044170         1.366646        -1.179067
 C         2.878891         0.203993        -0.686352
 H         0.471759        -1.464164         0.175273
 H        -0.828638        -0.299514        -0.140335
 H        -0.044861        -1.100310        -1.461333
 H         1.254293         1.204484         1.742381
 H         1.733628        -0.423099         1.718737
 H         4.374452         0.793160         2.049963
 H         3.225937         3.028381         1.206885
 H         4.518570         2.581185         0.227087
 H         1.663620         1.455627        -2.219988
 H         3.266766        -0.609117        -1.272083
