19
Iteration:  4510charge 0 multiplicity 1
 C         0.188008        -0.565737        -0.580302
 C         1.424271         0.284098        -0.292770
 C         1.799800         0.586653         1.200988
 C         3.226164         0.790590         0.704280
 O         4.437859         0.231344         1.455653
 C         3.314134         2.286831         0.446725
 O         2.656921         2.592561        -0.730993
 C         2.096382         1.315991        -1.207926
 C         2.874530         0.178533        -0.735087
 H        -0.116387        -1.306002         0.209733
 H        -0.603422         0.301703        -0.524843
 H         0.185582        -1.077597        -1.518864
 H         1.130100         1.369336         1.574019
 H         1.616149        -0.412473         1.731181
 H         4.275526        -0.740624         1.408873
 H         2.971709         2.966092         1.233225
 H         4.384493         2.442403         0.314357
 H         1.543347         1.378949        -2.184548
 H         3.409396        -0.536966        -1.334005
