19
Iteration:   106
 C        -0.120982        -0.174218        -0.288052
 C         1.254265         0.378785        -0.035095
 C         1.823810         0.987225         1.210144
 C         3.365248         0.755335         0.699136
 O         4.495345         0.304622         1.397092
 C         3.762401         1.967774        -0.132539
 O         2.572371         2.349124        -0.861159
 C         2.042054         1.069739        -1.164873
 C         2.774108        -0.078304        -0.491080
 H        -0.214514        -1.264798         0.058038
 H        -0.889617         0.526519         0.079180
 H        -0.347381        -0.230901        -1.391802
 H         1.562186         2.056199         1.191034
 H         1.539674         0.521816         2.153429
 H         4.326061         0.403454         2.342148
 H         4.127808         2.876020         0.374575
 H         4.570888         1.723248        -0.886411
 H         1.611905         1.042256        -2.099456
 H         3.205862        -0.918035        -1.034693
