19
Iteration:  4396
 C         0.272339        -0.542772        -0.650751
 C         1.444544         0.326866        -0.214913
 C         1.796169         0.599223         1.179464
 C         3.228558         0.819115         0.750471
 O         4.308790         0.204588         1.461864
 C         3.571302         2.274640         0.301417
 O         2.472659         2.508289        -0.665765
 C         2.004655         1.359666        -1.157288
 C         2.919914         0.229718        -0.675159
 H         0.467182        -1.710335        -0.454906
 H        -0.732777        -0.238292        -0.403513
 H         0.282309        -0.517921        -1.827915
 H         1.099803         1.343525         1.770229
 H         1.581300        -0.375900         1.647586
 H         4.160369        -0.778980         1.527094
 H         3.593216         3.096428         1.039660
 H         4.563574         2.187668        -0.196359
 H         1.420886         1.291563        -2.091886
 H         3.590331        -0.408579        -1.203054
