19
Iteration:  3623
 C         0.230925        -0.608578        -0.569058
 C         1.382388         0.329357        -0.244094
 C         1.706132         0.504008         1.183363
 C         3.145255         0.847599         0.753590
 O         4.413455         0.294742         1.354233
 C         3.488543         2.278741         0.425815
 O         2.686977         2.587364        -0.770917
 C         2.013731         1.344464        -1.178149
 C         2.866962         0.175541        -0.647981
 H         0.114796        -1.523255        -0.015454
 H        -0.672115        -0.001283        -0.402136
 H         0.311985        -1.043596        -1.601556
 H         1.255200         1.350277         1.815179
 H         1.574011        -0.526893         1.662345
 H         4.462946        -0.712923         1.287024
 H         3.185755         2.861870         1.251871
 H         4.489676         2.451223         0.131987
 H         1.722910         1.455187        -2.205502
 H         3.326355        -0.780177        -1.006227
