19
Iteration:  1274charge 0 multiplicity 1
 C         0.116753        -0.448016        -0.574970
 C         1.392659         0.231620        -0.207408
 C         1.868203         0.770944         1.255570
 C         3.312982         0.784848         0.654682
 O         4.406800         0.123187         1.438755
 C         3.566705         2.290372         0.240332
 O         2.434421         2.521827        -0.730849
 C         2.074015         1.214515        -1.192995
 C         2.865160         0.127768        -0.647950
 H         0.083586        -1.483547        -0.246321
 H        -0.735504         0.045036        -0.099971
 H         0.010720        -0.536808        -1.642436
 H         1.473499         1.812751         1.449029
 H         1.673740        -0.046207         1.995599
 H         4.014429         0.256286         2.335095
 H         3.466839         3.037656         1.048478
 H         4.546247         2.394928        -0.256960
 H         1.663338         1.275024        -2.243898
 H         3.369111        -0.663789        -1.060513
