19
Iteration:  1650charge 0 multiplicity 1
 C         0.153298        -0.549451        -0.602760
 C         1.408046         0.315302        -0.201123
 C         1.835837         0.577424         1.269149
 C         3.288005         0.816273         0.730550
 O         4.262574         0.242320         1.524974
 C         3.592008         2.217232         0.228289
 O         2.519715         2.573311        -0.720333
 C         2.043942         1.344758        -1.166698
 C         2.834754         0.155219        -0.710017
 H         0.134622        -1.479674         0.009321
 H        -0.858195        -0.005577        -0.472172
 H         0.246076        -0.921303        -1.688827
 H         1.342542         1.404444         1.688882
 H         1.988282        -0.370497         1.800427
 H         4.911708        -0.247976         1.053378
 H         3.524894         3.065634         0.934471
 H         4.549910         2.158380        -0.322778
 H         1.731831         1.421315        -2.178966
 H         3.413433        -0.506157        -1.320985
