19
Iteration:  2101
 C         0.127973        -0.528058        -0.565442
 C         1.374371         0.272165        -0.218691
 C         1.878525         0.596335         1.193125
 C         3.333203         0.788334         0.757422
 O         4.406358         0.379242         1.503962
 C         3.622526         2.206889         0.112511
 O         2.467768         2.563530        -0.586410
 C         1.960213         1.319377        -1.120740
 C         2.801011         0.083633        -0.727632
 H         0.118186        -1.597869        -0.515094
 H        -0.816384        -0.099540        -0.282199
 H         0.122745        -0.521260        -1.764684
 H         1.389873         1.484621         1.608147
 H         1.738582        -0.328402         1.829920
 H         4.427159        -0.588728         1.469921
 H         3.947084         2.983171         0.822259
 H         4.545803         2.105635        -0.432845
 H         1.647743         1.418067        -2.131890
 H         3.098500        -0.709871        -1.500838
