19
Iteration:  2968
 C         0.036723        -0.503683        -0.477908
 C         1.422796         0.222678        -0.268084
 C         1.833270         0.558175         1.090907
 C         3.316836         0.778265         0.567701
 O         4.269148         0.428300         1.551742
 C         3.644052         2.202161         0.177603
 O         2.533777         2.583351        -0.539097
 C         2.027312         1.249396        -1.148733
 C         2.929433         0.112016        -0.709633
 H        -0.088775        -1.452334        -0.001716
 H        -0.621043         0.316570        -0.280597
 H        -0.139645        -0.772167        -1.557449
 H         1.399637         1.477824         1.524996
 H         1.690145        -0.363764         1.555311
 H         4.281598        -0.564532         1.609250
 H         3.757948         2.770725         1.062463
 H         4.574311         2.320963        -0.394047
 H         1.806828         1.343953        -2.208783
 H         3.346731        -0.598797        -1.348443
