19
Iteration:  1797charge 0 multiplicity 1
 C         0.068677        -0.432905        -0.471282
 C         1.351644         0.294341        -0.211541
 C         1.869207         0.493445         1.196701
 C         3.239423         0.777740         0.668627
 O         4.332708         0.392088         1.485256
 C         3.511772         2.216378         0.267003
 O         2.600880         2.571427        -0.789225
 C         2.090534         1.249159        -1.209796
 C         2.891241         0.076375        -0.659127
 H         0.047990        -1.427620         0.123547
 H        -0.719727         0.286819        -0.129487
 H        -0.263262        -0.582050        -1.579160
 H         1.403106         1.230936         1.805383
 H         1.882815        -0.490160         1.688114
 H         4.586391        -0.562422         1.335617
 H         3.470543         3.012275         1.015695
 H         4.591183         2.321375         0.000605
 H         1.639207         1.314702        -2.208001
 H         3.534715        -0.522961        -1.221132
