19
Iteration:   673charge 0 multiplicity 1
 C        -0.095771        -0.358214        -0.372194
 C         1.283229         0.319145        -0.188643
 C         1.902990         0.781160         1.200897
 C         3.337588         0.772787         0.640536
 O         4.376029         0.406230         1.626383
 C         3.769662         2.120693        -0.076065
 O         2.558962         2.475320        -0.767749
 C         2.083558         1.115498        -1.189026
 C         2.768800        -0.013311        -0.684980
 H        -0.138915        -1.361895         0.040247
 H        -0.906603         0.221481         0.143311
 H        -0.538169        -0.421912        -1.326820
 H         1.681014         1.699680         1.745114
 H         2.007785         0.016563         2.000246
 H         3.834505        -0.187852         2.250486
 H         4.197414         2.868120         0.644650
 H         4.787254         1.929383        -0.666481
 H         1.694215         1.149445        -2.202622
 H         3.203833        -0.784449        -1.398272
