19
Iteration:  3826charge 0 multiplicity 1
 C         0.152464        -0.452527        -0.588932
 C         1.396767         0.268282        -0.356933
 C         1.838062         0.627859         1.080779
 C         3.358618         0.785575         0.653840
 O         4.326039         0.332740         1.640854
 C         3.533041         2.241037         0.270860
 O         2.459379         2.526336        -0.587588
 C         2.058626         1.246076        -1.210630
 C         2.914895         0.089375        -0.749383
 H         0.109994        -1.378991         0.062047
 H        -0.700938         0.208637        -0.442554
 H         0.155936        -0.817384        -1.625898
 H         1.429580         1.358421         1.882039
 H         1.984204        -0.346662         1.558574
 H         3.976544        -0.492627         2.091888
 H         3.460990         2.819263         1.214349
 H         4.329152         2.639389        -0.263552
 H         1.690826         1.418044        -2.219829
 H         3.348264        -0.732132        -1.364939
