19
Iteration:   472charge 0 multiplicity 1
 C        -0.007051        -0.430714        -0.213801
 C         1.236443         0.455074        -0.135939
 C         1.806849         0.790728         1.275731
 C         3.290161         0.838251         0.716521
 O         4.360098         0.256336         1.356804
 C         3.696328         2.109657         0.082041
 O         2.844613         2.383859        -1.057289
 C         2.049526         1.210545        -1.224752
 C         2.634355         0.064318        -0.532851
 H        -0.005518        -1.393892         0.282250
 H        -0.797282         0.039240         0.393671
 H        -0.264992        -0.772601        -1.246885
 H         1.525105         1.743783         1.767553
 H         1.847109        -0.085815         1.917157
 H         4.525914         0.779078         2.137365
 H         3.470985         2.943656         0.721025
 H         4.690086         1.857451        -0.229531
 H         1.626672         1.161111        -2.257161
 H         3.015409        -0.888388        -0.964149
