19
Iteration:  3313
 C         0.134514        -0.550360        -0.593549
 C         1.399132         0.343174        -0.222388
 C         1.890492         0.496597         1.232528
 C         3.290041         0.799953         0.667367
 O         4.289756         0.170394         1.410317
 C         3.515603         2.305356         0.346046
 O         2.490888         2.591912        -0.727339
 C         2.067642         1.316196        -1.168695
 C         2.914406         0.158820        -0.727425
 H         0.076028        -1.468765         0.115339
 H        -0.775628        -0.007607        -0.589325
 H         0.097561        -0.890311        -1.638372
 H         1.401415         1.170238         2.010352
 H         1.795881        -0.532844         1.736085
 H         4.624364         0.921676         2.002582
 H         3.403250         2.852338         1.326478
 H         4.529266         2.610557         0.080523
 H         1.659372         1.434433        -2.181641
 H         3.533118        -0.641018        -1.267147
