19
Iteration:  3988
 C         0.150579        -0.453184        -0.590192
 C         1.459168         0.169756        -0.349260
 C         1.803357         0.698224         1.037935
 C         3.287820         0.694376         0.663661
 O         4.372458         0.337404         1.549928
 C         3.576600         2.162045         0.326294
 O         2.344054         2.514827        -0.506797
 C         2.087814         1.294247        -1.173231
 C         2.983073         0.119925        -0.749131
 H        -0.046387        -1.360368         0.004732
 H        -0.668317         0.315877        -0.346159
 H        -0.034345        -0.600991        -1.642219
 H         1.386236         1.690157         1.204930
 H         1.623781         0.054876         1.871751
 H         3.936246        -0.151755         2.223913
 H         3.602159         3.037003         0.977346
 H         4.488243         2.444304        -0.365634
 H         1.842944         1.230018        -2.237872
 H         3.604535        -0.441133        -1.429898
