19
Iteration:  3464
 C         0.184219        -0.541802        -0.560779
 C         1.447169         0.261404        -0.286691
 C         1.790759         0.566068         1.147921
 C         3.333975         0.829214         0.728198
 O         4.308255         0.029211         1.331131
 C         3.418509         2.347785         0.409917
 O         2.478635         2.637198        -0.688346
 C         2.058658         1.299676        -1.210232
 C         2.998412         0.214209        -0.665343
 H         0.089884        -1.416924         0.227632
 H        -0.725437         0.029339        -0.257924
 H         0.043287        -1.100311        -1.465810
 H         1.242824         1.382975         1.648847
 H         1.902590        -0.356070         1.747470
 H         4.548854         0.577737         2.161155
 H         2.933345         3.010785         1.217667
 H         4.408973         2.619974         0.011731
 H         1.737211         1.310430        -2.227205
 H         3.827159        -0.359896        -1.177498
