19
Iteration:  2147charge 0 multiplicity 1
 C         0.139793        -0.440574        -0.634459
 C         1.339205         0.242234        -0.166946
 C         1.900415         0.596613         1.243467
 C         3.282995         0.821212         0.615598
 O         4.374709         0.317910         1.343788
 C         3.540219         2.313601         0.308825
 O         2.518135         2.506248        -0.670093
 C         2.030596         1.243296        -1.108952
 C         2.808470         0.054634        -0.673314
 H         0.214668        -1.519878        -0.479994
 H        -0.727158        -0.069562        -0.100834
 H        -0.037719        -0.529040        -1.783330
 H         1.605103         1.473614         1.852905
 H         1.972204        -0.382942         1.850633
 H         4.341049        -0.184930         2.205855
 H         3.707958         3.161314         0.963325
 H         4.533397         2.296715        -0.129548
 H         1.603555         1.377764        -2.103016
 H         3.377920        -0.694762        -1.133545
