19
Iteration:  3860charge 0 multiplicity 1
 C         0.128035        -0.426844        -0.571442
 C         1.470545         0.149197        -0.328780
 C         1.799539         0.580563         1.086105
 C         3.264045         0.804580         0.700189
 O         4.322532         0.300457         1.562046
 C         3.542523         2.237064         0.220831
 O         2.440364         2.550008        -0.628017
 C         2.071878         1.262326        -1.125497
 C         3.032033         0.169707        -0.718206
 H        -0.031667        -1.322100         0.124826
 H        -0.507959         0.317666        -0.182231
 H        -0.091364        -0.737634        -1.631627
 H         1.053931         1.348920         1.524372
 H         1.724455        -0.302284         1.751600
 H         3.884950        -0.490534         2.011512
 H         3.473518         3.000040         1.036556
 H         4.444305         2.299525        -0.340501
 H         1.806041         1.505829        -2.172345
 H         3.717030        -0.460194        -1.286804
