19
Iteration:  4390charge 0 multiplicity 1
 C         0.289245        -0.555724        -0.658593
 C         1.419925         0.343436        -0.175342
 C         1.809957         0.569483         1.160458
 C         3.236887         0.794408         0.741944
 O         4.277299         0.199448         1.465244
 C         3.517450         2.266172         0.322422
 O         2.515067         2.571477        -0.696820
 C         1.978488         1.377657        -1.157021
 C         2.946736         0.195922        -0.690889
 H         0.459855        -1.502885        -0.262792
 H        -0.710923        -0.285536        -0.215564
 H         0.315642        -0.725581        -1.685793
 H         1.299598         1.432769         1.498504
 H         1.715490        -0.305422         1.830983
 H         4.169317        -0.792164         1.388605
 H         3.417482         2.979449         1.157199
 H         4.541845         2.266487        -0.070295
 H         1.564886         1.287883        -2.152719
 H         3.541980        -0.492330        -1.357938
