19
Iteration:  4623
 C         0.214453        -0.569710        -0.535775
 C         1.354312         0.375381        -0.400142
 C         1.753281         0.664916         1.160672
 C         3.255382         0.713688         0.711140
 O         4.394030         0.225997         1.410651
 C         3.444519         2.265492         0.430845
 O         2.555471         2.621403        -0.698031
 C         2.137250         1.309826        -1.174168
 C         2.866743         0.101044        -0.644375
 H         0.515173        -1.466098        -0.130098
 H        -0.737067        -0.369188         0.019399
 H         0.067791        -0.843357        -1.612370
 H         1.111435         1.488252         1.376263
 H         1.527569        -0.190352         1.805182
 H         4.211969        -0.677186         1.628314
 H         3.191789         2.815349         1.340667
 H         4.499483         2.422750         0.254035
 H         2.033036         1.436254        -2.251378
 H         3.458198        -0.409998        -1.476216
