19
Iteration:  4039
 C         0.217759        -0.545768        -0.727661
 C         1.300249         0.394588        -0.152238
 C         1.887006         0.519220         1.282654
 C         3.234327         0.822321         0.807077
 O         4.433974         0.256636         1.439580
 C         3.425829         2.253211         0.279035
 O         2.673145         2.551975        -0.812353
 C         2.038431         1.327759        -1.165559
 C         2.742390         0.193259        -0.619651
 H         0.217611        -1.545303        -0.300627
 H        -0.866755        -0.215651        -0.609975
 H         0.469829        -0.700724        -1.797260
 H         1.436943         1.281457         1.928098
 H         1.731094        -0.549613         1.723449
 H         4.201532        -0.673138         1.593266
 H         2.972962         2.837208         1.131385
 H         4.385223         2.634523         0.077413
 H         1.773027         1.201473        -2.184508
 H         3.200292        -0.686856        -1.104441
