19
Iteration:  1995charge 0 multiplicity 1
 C         0.087410        -0.516438        -0.695612
 C         1.333546         0.332088        -0.152119
 C         1.883977         0.540504         1.270353
 C         3.337061         0.755549         0.670612
 O         4.499753         0.413573         1.505544
 C         3.574559         2.154096         0.169794
 O         2.491512         2.595979        -0.670004
 C         1.987485         1.291738        -1.109449
 C         2.826479         0.100517        -0.718344
 H        -0.125481        -1.495991        -0.161296
 H        -0.865761        -0.024190        -0.457207
 H         0.028373        -0.614915        -1.786285
 H         1.647137         1.467896         1.793458
 H         1.557388        -0.293570         1.931310
 H         4.374863        -0.368860         2.034945
 H         3.534231         2.846880         0.995932
 H         4.431461         1.922954        -0.459738
 H         1.460039         1.241881        -2.025303
 H         3.119651        -0.635596        -1.517098
