19
Iteration:  1499
 C         0.127762        -0.538966        -0.624281
 C         1.403715         0.331331        -0.197684
 C         1.829854         0.758472         1.273210
 C         3.243953         0.888325         0.702132
 O         4.329167         0.150105         1.370772
 C         3.489325         2.320620         0.330880
 O         2.555402         2.466699        -0.708854
 C         2.091562         1.195608        -1.196562
 C         2.876664         0.103223        -0.584549
 H        -0.027236        -1.426057        -0.032629
 H        -0.698272         0.121945        -0.601975
 H         0.199425        -0.840798        -1.714712
 H         1.272764         1.669600         1.701001
 H         1.609167        -0.121927         1.956552
 H         4.941714        -0.005934         0.668957
 H         3.288069         2.962190         1.210248
 H         4.521474         2.518869        -0.050750
 H         1.836215         1.304099        -2.268663
 H         3.527104        -0.674373        -0.955776
