19
Iteration:   697
 C         0.049475        -0.400521        -0.339009
 C         1.332891         0.340582        -0.177352
 C         1.835782         0.789780         1.200319
 C         3.325292         0.792593         0.673141
 O         4.308172         0.232954         1.532914
 C         3.749849         2.124113        -0.042529
 O         2.612428         2.449248        -0.885282
 C         1.981600         1.217629        -1.181081
 C         2.772831         0.051692        -0.538388
 H        -0.023514        -1.468304         0.027060
 H        -0.753049         0.179799         0.124474
 H        -0.301504        -0.396316        -1.383521
 H         1.468770         1.663566         1.707307
 H         1.748525        -0.080048         1.859478
 H         4.382232         0.860923         2.283067
 H         4.100507         2.860217         0.746090
 H         4.740904         1.990198        -0.642295
 H         1.524274         1.346554        -2.224265
 H         3.191451        -0.786091        -1.070902
