19
Iteration:   537
 C        -0.062759        -0.297029        -0.338841
 C         1.345888         0.318363        -0.101627
 C         1.852491         0.893153         1.198174
 C         3.381921         0.815015         0.592101
 O         4.298659         0.293815         1.504137
 C         3.736061         2.182959        -0.043833
 O         2.516808         2.405766        -0.783107
 C         2.116837         1.055041        -1.167191
 C         2.834301        -0.020564        -0.561428
 H        -0.240188        -0.987881         0.473565
 H        -0.707103         0.535332        -0.157167
 H        -0.205687        -0.607807        -1.394900
 H         1.351388         1.857842         1.516147
 H         1.693122         0.278583         2.096714
 H         4.422789        -0.681383         1.459651
 H         3.915466         3.055481         0.614486
 H         4.662278         1.826021        -0.771126
 H         1.675515         1.085805        -2.226729
 H         3.308785        -0.837589        -1.137787
