19
Iteration:  4446
 C         0.198658        -0.495917        -0.809522
 C         1.381417         0.281850        -0.233806
 C         1.790692         0.648927         1.178282
 C         3.313211         0.781320         0.665778
 O         4.459748         0.396552         1.557315
 C         3.554790         2.167183         0.309323
 O         2.466411         2.451994        -0.512151
 C         1.963017         1.260077        -1.186753
 C         2.878287         0.150843        -0.761588
 H         0.197186        -1.466105        -0.497048
 H        -0.726340         0.024361        -0.359128
 H        -0.071803        -0.405049        -1.815717
 H         1.309742         1.526239         1.555699
 H         1.701070        -0.115228         1.976904
 H         4.231350        -0.374445         2.038334
 H         3.472999         2.728417         1.237814
 H         4.559498         2.305424        -0.107803
 H         1.615327         1.293930        -2.267058
 H         3.315811        -0.538661        -1.481413
