19
Iteration:   151charge 0 multiplicity 1
 C        -0.127455        -0.289876        -0.138506
 C         1.162216         0.498465        -0.058879
 C         1.942500         0.858797         1.255025
 C         3.376994         0.835425         0.665231
 O         4.307543         0.123879         1.602758
 C         3.722844         2.208596        -0.092941
 O         2.766862         2.358556        -1.150042
 C         2.039580         1.094325        -1.183696
 C         2.663051         0.013910        -0.566650
 H         0.141453        -1.295962         0.386047
 H        -1.092861         0.179165         0.158258
 H        -0.292194        -0.691961        -1.195722
 H         1.638866         1.752580         1.843500
 H         1.854967        -0.119901         1.726877
 H         5.207231         0.451196         1.508278
 H         3.748482         3.068125         0.595164
 H         4.787596         2.202138        -0.538655
 H         1.760978         0.993628        -2.202916
 H         3.076065        -0.817318        -1.150288
