19
Iteration:   828charge 0 multiplicity 1
 C        -0.013823        -0.255806        -0.461937
 C         1.381019         0.251874        -0.101738
 C         1.900998         0.810087         1.252483
 C         3.348943         0.778544         0.644795
 O         4.322343         0.348842         1.537217
 C         3.640057         2.169289         0.033576
 O         2.459205         2.390498        -0.727188
 C         2.111296         1.122890        -1.236085
 C         2.830556        -0.032113        -0.612305
 H        -0.412569        -1.206814        -0.072970
 H        -0.671500         0.592997        -0.198746
 H        -0.040537        -0.354560        -1.529756
 H         1.537045         1.829329         1.538141
 H         1.744966        -0.007964         1.981434
 H         5.002438        -0.064595         0.995184
 H         3.719479         2.952544         0.797389
 H         4.602436         2.101391        -0.541674
 H         1.636844         1.145279        -2.235461
 H         3.363991        -0.876816        -0.975526
