19
Iteration:  4116
 C         0.200303        -0.357402        -0.644455
 C         1.472895         0.256230        -0.236927
 C         1.897256         0.531556         1.141355
 C         3.290932         0.811916         0.650647
 O         4.317788         0.254957         1.544201
 C         3.467095         2.306360         0.237199
 O         2.415006         2.502664        -0.632226
 C         2.046208         1.270529        -1.159115
 C         2.949784         0.091798        -0.698127
 H         0.141691        -1.371747        -0.258352
 H        -0.652325         0.261044        -0.117961
 H        -0.056910        -0.469909        -1.699975
 H         1.324918         1.194645         1.788155
 H         2.068422        -0.462008         1.755410
 H         3.935095        -0.501595         2.099888
 H         3.397895         2.968124         1.137118
 H         4.414869         2.436298        -0.327166
 H         1.563741         1.415251        -2.149793
 H         3.624490        -0.438585        -1.368124
