19
Iteration:  3507charge 0 multiplicity 1
 C         0.169226        -0.603876        -0.689772
 C         1.291651         0.331496        -0.246818
 C         1.821449         0.602492         1.221847
 C         3.285029         0.818964         0.691524
 O         4.467161         0.149461         1.359337
 C         3.455308         2.294540         0.391407
 O         2.520798         2.592311        -0.715680
 C         2.065058         1.309138        -1.129163
 C         2.873338         0.189774        -0.654802
 H         0.172000        -1.571738        -0.136533
 H        -0.798248        -0.067800        -0.581117
 H         0.515820        -0.909668        -1.643853
 H         1.242185         1.323481         1.783618
 H         1.844462        -0.326932         1.719447
 H         4.464930         0.583595         2.255104
 H         3.113350         2.681500         1.399350
 H         4.460456         2.512202         0.113142
 H         1.686802         1.357136        -2.123732
 H         3.340292        -0.674521        -1.166261
