19
Iteration:   790charge 0 multiplicity 1
 C         0.000343        -0.306761        -0.357771
 C         1.359621         0.317141        -0.157752
 C         1.828859         0.658762         1.243780
 C         3.304240         0.758594         0.641810
 O         4.368460         0.326464         1.484525
 C         3.685433         2.160494         0.040238
 O         2.606576         2.468317        -0.840942
 C         2.044874         1.191190        -1.204143
 C         2.786911        -0.006422        -0.612582
 H        -0.288450        -0.983992         0.490979
 H        -0.829792         0.478692        -0.582340
 H         0.077415        -0.937639        -1.322009
 H         1.486287         1.564215         1.838656
 H         1.785260        -0.211736         1.942587
 H         4.119899         0.698722         2.387693
 H         3.896020         3.017480         0.744450
 H         4.637166         2.137808        -0.559154
 H         1.600403         1.198572        -2.186283
 H         3.176441        -0.876188        -1.245689
