19
Iteration:  2907charge 0 multiplicity 1
 C         0.206399        -0.523224        -0.659961
 C         1.325103         0.308631        -0.091346
 C         1.842466         0.672121         1.301022
 C         3.271185         0.822982         0.705983
 O         4.413895         0.259712         1.287559
 C         3.461029         2.325330         0.394751
 O         2.662299         2.478952        -0.810912
 C         2.103977         1.282158        -1.212290
 C         2.721774         0.104236        -0.564523
 H        -0.043999        -1.484694        -0.094967
 H        -0.786829        -0.057762        -0.581632
 H         0.402522        -0.773029        -1.660180
 H         1.376461         1.537024         1.788894
 H         1.630955        -0.197451         2.047590
 H         4.201274        -0.691007         1.086570
 H         2.974765         2.996590         1.209088
 H         4.531659         2.516419         0.137990
 H         1.431777         1.233595        -2.076338
 H         3.269943        -0.715402        -1.035461
