19
Iteration:  4880
 C         0.089301        -0.389621        -0.660540
 C         1.464097         0.166644        -0.333968
 C         1.778852         0.537998         1.177306
 C         3.203828         0.808116         0.727568
 O         4.319938         0.384677         1.456472
 C         3.543503         2.266764         0.303339
 O         2.484945         2.531120        -0.566888
 C         2.101573         1.256950        -1.189856
 C         3.009265         0.072808        -0.687313
 H        -0.148520        -1.311953         0.033997
 H        -0.533334         0.335307        -0.184492
 H        -0.120155        -0.596621        -1.692396
 H         1.255853         1.323692         1.812599
 H         1.657198        -0.450849         1.612759
 H         4.234014        -0.587567         1.555128
 H         3.596244         2.972801         1.173456
 H         4.543985         2.293516        -0.148283
 H         1.971378         1.383500        -2.283917
 H         3.758363        -0.561208        -1.211867
