19
Iteration:  3196charge 0 multiplicity 1
 C         0.177621        -0.664201        -0.435793
 C         1.315766         0.320039        -0.216888
 C         1.816927         0.535196         1.161048
 C         3.273715         0.884528         0.604131
 O         4.287288         0.066069         1.386220
 C         3.497788         2.324980         0.350348
 O         2.690635         2.643135        -0.776410
 C         2.044071         1.365382        -1.179781
 C         2.881957         0.202295        -0.691371
 H         0.450847        -1.446077         0.164080
 H        -0.823843        -0.271485        -0.130119
 H        -0.074404        -1.112564        -1.449568
 H         1.240172         1.207372         1.766247
 H         1.729805        -0.426460         1.701505
 H         4.429803         0.795925         2.080189
 H         3.223545         2.980280         1.213015
 H         4.513641         2.583107         0.231171
 H         1.689047         1.441211        -2.219853
 H         3.265249        -0.633231        -1.289215
