19
Iteration:  4265charge 0 multiplicity 1
 C         0.196306        -0.453708        -0.690465
 C         1.433528         0.277100        -0.361310
 C         1.761962         0.540591         1.215676
 C         3.259672         0.743331         0.809269
 O         4.392229         0.404919         1.433626
 C         3.551198         2.192195         0.302076
 O         2.452159         2.512011        -0.546907
 C         2.073872         1.311028        -1.156261
 C         2.908041         0.097813        -0.755057
 H         0.259621        -1.601455        -0.509973
 H        -0.644126        -0.039284        -0.234962
 H        -0.083847        -0.184198        -1.753974
 H         1.168420         1.453818         1.697575
 H         1.593420        -0.296255         1.859086
 H         4.306002        -0.454493         1.984365
 H         3.661945         2.958989         1.107302
 H         4.480144         2.212631        -0.301873
 H         1.500661         1.526319        -2.106160
 H         3.415279        -0.658671        -1.355336
