19
Iteration:  3571
 C         0.149143        -0.497874        -0.667118
 C         1.478434         0.218853        -0.263473
 C         1.874299         0.600889         1.114820
 C         3.337695         0.886844         0.742743
 O         4.363110         0.185282         1.534902
 C         3.543082         2.286741         0.236372
 O         2.393292         2.530294        -0.595678
 C         2.026278         1.292461        -1.156124
 C         2.907537         0.154036        -0.719273
 H         0.177436        -1.510109        -0.325191
 H        -0.750067         0.008659        -0.059400
 H        -0.271014        -0.589953        -1.693830
 H         1.264118         1.424063         1.569239
 H         1.857689        -0.203648         1.841618
 H         3.895093        -0.541288         2.069867
 H         3.619386         3.099989         1.029004
 H         4.441948         2.621750        -0.430574
 H         1.666326         1.415511        -2.154421
 H         3.581646        -0.395030        -1.388300
