19
Iteration:  4203
 C         0.323292        -0.623810        -0.587511
 C         1.447096         0.304306        -0.220792
 C         1.821442         0.627532         1.259187
 C         3.214873         0.776745         0.690928
 O         4.222474         0.109484         1.368050
 C         3.463844         2.335466         0.452151
 O         2.618918         2.624184        -0.807610
 C         1.957543         1.347572        -1.155831
 C         2.924971         0.243642        -0.663217
 H         0.188964        -1.489872         0.027784
 H        -0.608132        -0.019668        -0.390810
 H         0.435743        -0.975332        -1.599481
 H         1.368743         1.497638         1.632172
 H         1.838163        -0.238579         1.949661
 H         4.309965        -0.851401         1.085975
 H         2.997097         2.798359         1.349534
 H         4.442717         2.744022         0.191303
 H         1.695773         1.200049        -2.247383
 H         3.411605        -0.450641        -1.330930
