19
Iteration:  1140charge 0 multiplicity 1
 C         0.127614        -0.486208        -0.483808
 C         1.330728         0.329606        -0.216652
 C         1.851437         0.714414         1.171942
 C         3.302468         0.794829         0.613444
 O         4.318911         0.276400         1.471837
 C         3.641369         2.270911         0.256457
 O         2.580430         2.513940        -0.742292
 C         2.018679         1.248050        -1.195285
 C         2.780791         0.007554        -0.589397
 H        -0.041363        -1.140960         0.328861
 H        -0.762028         0.036435        -0.404378
 H         0.267244        -0.908209        -1.485921
 H         1.314678         1.593207         1.633686
 H         2.025238        -0.127943         1.847933
 H         4.584532        -0.594853         1.116944
 H         3.398352         3.043695         0.970106
 H         4.598104         2.472442        -0.152904
 H         1.670032         1.437366        -2.191931
 H         3.297357        -0.919725        -1.078561
