19
Iteration:  4639charge 0 multiplicity 1
 C         0.249167        -0.571596        -0.573960
 C         1.432772         0.302017        -0.238864
 C         1.662672         0.541793         1.195488
 C         3.160173         0.791016         0.753410
 O         4.356715         0.227908         1.302838
 C         3.468367         2.255737         0.485822
 O         2.635417         2.612468        -0.777296
 C         2.146191         1.362210        -1.235236
 C         2.893266         0.221446        -0.647769
 H         0.215582        -1.564291         0.100683
 H        -0.622148        -0.042894        -0.197589
 H         0.075947        -0.846056        -1.613799
 H         1.331563         1.393231         1.875434
 H         1.447320        -0.389707         1.756824
 H         4.186533        -0.669736         1.536509
 H         3.054576         2.936182         1.267628
 H         4.512501         2.364666         0.084841
 H         1.678261         1.253634        -2.226772
 H         3.481417        -0.617457        -0.932730
