19
Iteration:  2020
 C         0.224434        -0.551788        -0.541864
 C         1.329498         0.344707        -0.128877
 C         1.872368         0.575742         1.184796
 C         3.298453         0.849255         0.585737
 O         4.347350         0.275047         1.346804
 C         3.566481         2.270254         0.366745
 O         2.581546         2.510319        -0.741929
 C         2.034005         1.326159        -1.132861
 C         2.750354         0.134436        -0.693748
 H         0.071302        -1.325359         0.293939
 H        -0.811273        -0.068926        -0.496108
 H         0.288146        -1.022872        -1.501902
 H         1.324488         1.314312         1.796008
 H         1.965949        -0.303932         1.764545
 H         4.204600        -0.381463         1.989408
 H         3.298920         2.871530         1.230279
 H         4.460389         2.312356        -0.119755
 H         1.548328         1.322675        -2.126964
 H         3.263924        -0.577380        -1.258441
