19
Iteration:  4236
 C         0.160091        -0.653037        -0.560797
 C         1.365528         0.351341        -0.369946
 C         1.856823         0.569493         1.179778
 C         3.275388         0.756083         0.701419
 O         4.296353         0.207087         1.464971
 C         3.497040         2.342453         0.425873
 O         2.561058         2.656588        -0.699197
 C         2.108585         1.342174        -1.188123
 C         2.883179         0.145625        -0.706301
 H         0.408513        -1.620057        -0.187732
 H        -0.744030        -0.215098        -0.065210
 H        -0.161650        -0.742583        -1.589740
 H         1.393078         1.313889         1.763803
 H         1.830963        -0.357467         1.774083
 H         4.289327        -0.750101         1.354341
 H         3.216253         2.908758         1.350992
 H         4.474548         2.706948         0.084015
 H         1.832573         1.388348        -2.269801
 H         3.363373        -0.607074        -1.314692
