19
Iteration:  3747charge 0 multiplicity 1
 C         0.322537        -0.569987        -0.641215
 C         1.377585         0.353452        -0.221729
 C         1.837623         0.629034         1.269771
 C         3.292105         0.787781         0.730128
 O         4.286744         0.231701         1.506799
 C         3.441139         2.145792         0.351609
 O         2.537721         2.603234        -0.831690
 C         2.091338         1.361669        -1.144043
 C         2.846211         0.150787        -0.711293
 H         0.356147        -1.532806        -0.158285
 H        -0.718176        -0.103985        -0.315688
 H         0.224808        -0.594144        -1.714694
 H         1.344073         1.586676         1.788751
 H         1.707286        -0.296114         1.886464
 H         4.423928        -0.711072         1.197014
 H         3.001146         2.844627         1.028794
 H         4.367468         2.514903         0.036755
 H         1.580380         1.423439        -2.123972
 H         3.401224        -0.702134        -1.089137
