19
Iteration:  1455
 C         0.164676        -0.595417        -0.521927
 C         1.321802         0.405804        -0.218685
 C         1.861908         0.562911         1.289477
 C         3.286954         0.720954         0.709662
 O         4.299963         0.236454         1.590881
 C         3.493381         2.259767         0.359104
 O         2.735072         2.523559        -0.913140
 C         1.974091         1.384879        -1.268892
 C         2.739206         0.233735        -0.736531
 H         0.498947        -1.483565         0.034987
 H        -0.833425        -0.301555        -0.283651
 H         0.287192        -0.939819        -1.623955
 H         1.701818         1.222805         2.222255
 H         1.943917        -0.505319         1.760070
 H         4.890059        -0.269664         1.071290
 H         3.064372         3.052258         0.971897
 H         4.537262         2.558921         0.146527
 H         1.532153         1.530517        -2.306541
 H         3.090995        -0.605605        -1.248166
