19
Iteration:  1049
 C         0.137628        -0.465330        -0.414594
 C         1.368417         0.385864        -0.190455
 C         1.784477         0.802520         1.207968
 C         3.289017         0.807084         0.684847
 O         4.432895         0.181567         1.396565
 C         3.473291         2.293403         0.348924
 O         2.660978         2.438350        -0.944281
 C         2.051699         1.220110        -1.210528
 C         2.825960         0.070105        -0.592148
 H         0.035403        -1.395640         0.115681
 H        -0.698706        -0.000142         0.060321
 H        -0.130440        -0.449916        -1.473709
 H         1.363120         1.667452         1.716240
 H         1.742254        -0.030361         1.943445
 H         4.113293        -0.773758         1.458243
 H         3.081491         2.979692         1.072851
 H         4.488430         2.502613         0.109457
 H         1.605064         1.095227        -2.229015
 H         3.125193        -0.794046        -1.093121
