19
Iteration:  4961charge 0 multiplicity 1
 C         0.316839        -0.583802        -0.631772
 C         1.434431         0.316813        -0.242046
 C         1.750729         0.560495         1.228324
 C         3.170127         0.830501         0.743282
 O         4.294302         0.184439         1.343089
 C         3.506277         2.266515         0.394676
 O         2.543986         2.611689        -0.725864
 C         2.113378         1.325480        -1.204616
 C         2.887920         0.198513        -0.629766
 H         0.431637        -1.509801        -0.073919
 H        -0.559456        -0.001442        -0.244398
 H         0.003586        -0.832317        -1.667886
 H         1.212906         1.427445         1.585785
 H         1.669892        -0.347211         1.920808
 H         3.973492        -0.377558         2.125647
 H         3.504636         3.040327         1.161898
 H         4.466120         2.281650        -0.198449
 H         1.915203         1.386412        -2.262450
 H         3.194486        -0.689261        -1.188383
