19
Iteration:  3601
 C         0.212425        -0.542371        -0.524888
 C         1.400130         0.357844        -0.248812
 C         1.805324         0.590490         1.165194
 C         3.242929         0.785320         0.675157
 O         4.293718         0.286864         1.418749
 C         3.437778         2.255840         0.413370
 O         2.544398         2.547919        -0.649815
 C         2.159636         1.315692        -1.247904
 C         2.864291         0.110037        -0.771493
 H         0.384426        -1.426060         0.077081
 H        -0.659773        -0.080833        -0.067284
 H         0.112388        -0.997618        -1.540152
 H         1.449735         1.565664         1.636364
 H         1.697899        -0.283352         1.898240
 H         4.476425        -0.628793         1.412453
 H         3.112283         2.691726         1.302805
 H         4.394088         2.599624         0.074213
 H         1.972421         1.344354        -2.307284
 H         3.556766        -0.523610        -1.382981
