19
Iteration:  3442charge 0 multiplicity 1
 C         0.177940        -0.564813        -0.639241
 C         1.376064         0.291509        -0.270268
 C         1.814581         0.611304         1.157644
 C         3.346170         0.773380         0.647403
 O         4.392342         0.198439         1.433188
 C         3.523936         2.304064         0.334772
 O         2.406846         2.547833        -0.558856
 C         2.107679         1.340042        -1.176353
 C         2.863603         0.148176        -0.727868
 H         0.112748        -1.633086        -0.193711
 H        -0.817314        -0.151944        -0.359085
 H         0.181537        -0.724221        -1.710582
 H         1.419882         1.490573         1.706345
 H         1.907011        -0.263554         1.796428
 H         4.294485         0.393289         2.356095
 H         3.210870         3.012653         1.173991
 H         4.556217         2.419338        -0.085141
 H         1.953603         1.405804        -2.238771
 H         3.253358        -0.649914        -1.411992
