19
Iteration:  3322
 C         0.166865        -0.556644        -0.517784
 C         1.301302         0.315929        -0.315692
 C         1.874901         0.526913         1.190624
 C         3.290999         0.820279         0.690497
 O         4.290467         0.131812         1.402994
 C         3.511129         2.353077         0.397296
 O         2.555163         2.591763        -0.690591
 C         2.074447         1.283080        -1.187613
 C         2.875131         0.154984        -0.738269
 H         0.065894        -1.437065         0.180667
 H        -0.690446         0.036894        -0.348618
 H         0.214584        -0.978384        -1.466623
 H         1.211833         1.230178         1.788869
 H         1.992676        -0.485022         1.600973
 H         4.949325         0.783551         1.806481
 H         3.023873         2.815012         1.158028
 H         4.440576         2.745724         0.064945
 H         1.779167         1.328005        -2.263621
 H         3.720462        -0.307644        -1.216648
