19
Iteration:   400
 C        -0.015132        -0.198104        -0.344458
 C         1.373306         0.276819        -0.072571
 C         1.867135         0.937782         1.219283
 C         3.328386         0.766597         0.693203
 O         4.363212         0.218274         1.493051
 C         3.702679         2.131025        -0.075062
 O         2.502506         2.399803        -0.886864
 C         2.057243         1.087321        -1.117210
 C         2.814772        -0.025038        -0.501644
 H        -0.440349        -0.902239         0.377948
 H        -0.707783         0.685837        -0.247926
 H        -0.073130        -0.664043        -1.329877
 H         1.446906         1.980611         1.322800
 H         1.558997         0.296781         2.094567
 H         4.996856        -0.141881         0.864486
 H         3.834100         2.981661         0.668383
 H         4.560981         1.898293        -0.838887
 H         1.553786         1.148790        -2.183168
 H         3.258141        -0.816752        -1.103938
