19
Iteration:  1809charge 0 multiplicity 1
 C         0.032866        -0.369222        -0.485154
 C         1.448691         0.207282        -0.328086
 C         1.788035         0.528190         1.155046
 C         3.337109         0.804971         0.726538
 O         4.402248         0.331385         1.528763
 C         3.574039         2.276405         0.209232
 O         2.502103         2.524976        -0.740181
 C         2.012088         1.257336        -1.176426
 C         2.921566         0.113946        -0.622991
 H        -0.139124        -1.343494         0.114952
 H        -0.663485         0.336853         0.036707
 H        -0.169511        -0.654778        -1.566987
 H         1.249339         1.357677         1.605269
 H         1.742188        -0.357925         1.777473
 H         4.458247        -0.581460         1.347966
 H         3.386184         2.901429         1.101701
 H         4.485836         2.264263        -0.410574
 H         1.758054         1.247260        -2.250198
 H         3.434325        -0.608417        -1.173686
