19
Iteration:  1866charge 0 multiplicity 1
 C         0.179043        -0.561091        -0.622489
 C         1.347017         0.323911        -0.154414
 C         1.807048         0.630166         1.268971
 C         3.338240         0.835993         0.695880
 O         4.431078         0.249636         1.421227
 C         3.585646         2.260811         0.192203
 O         2.545008         2.554632        -0.704454
 C         1.978653         1.232901        -1.165204
 C         2.739810         0.119723        -0.647499
 H         0.139243        -1.539883        -0.089062
 H        -0.691799         0.166466        -0.690248
 H         0.473002        -0.784865        -1.635672
 H         1.383080         1.590731         1.671776
 H         1.703939        -0.221609         1.945912
 H         4.144012        -0.373541         2.172703
 H         3.703025         3.079871         1.005808
 H         4.592798         2.444165        -0.294917
 H         1.386931         1.382044        -2.064025
 H         3.224723        -0.635197        -1.363771
