19
Iteration:  1203
 C         0.111091        -0.445776        -0.501020
 C         1.295586         0.374984        -0.175099
 C         1.888778         0.605833         1.243535
 C         3.324468         0.793826         0.645185
 O         4.283964         0.221099         1.471455
 C         3.549752         2.291430         0.257728
 O         2.621557         2.486368        -0.804911
 C         2.013010         1.223839        -1.194176
 C         2.787382         0.083121        -0.693072
 H         0.210634        -1.478980        -0.010631
 H        -0.832715         0.139307        -0.215602
 H         0.123530        -0.734390        -1.648768
 H         1.463300         1.415412         1.844876
 H         2.042819        -0.338263         1.793379
 H         5.005203         0.795554         1.741524
 H         3.276034         2.924502         1.134374
 H         4.680826         2.466020         0.012838
 H         1.850353         1.243301        -2.251418
 H         3.423286        -0.798694        -1.131050
