19
Iteration:   152charge 0 multiplicity 1
 C        -0.129884        -0.294648        -0.134388
 C         1.154719         0.498588        -0.059249
 C         1.939775         0.861334         1.256181
 C         3.379508         0.840335         0.673547
 O         4.311238         0.114804         1.603887
 C         3.719299         2.219618        -0.083497
 O         2.769481         2.357438        -1.158144
 C         2.039919         1.090976        -1.189678
 C         2.668955         0.013505        -0.566737
 H         0.144296        -1.278177         0.400817
 H        -1.091464         0.196130         0.148450
 H        -0.300484        -0.707715        -1.177735
 H         1.610385         1.773675         1.871653
 H         1.843454        -0.124577         1.747857
 H         5.214405         0.400431         1.454772
 H         3.750395         3.084285         0.584005
 H         4.789388         2.222161        -0.539927
 H         1.778272         0.995679        -2.263101
 H         3.080364        -0.798369        -1.183315
