19
Iteration:   463
 C         0.018173        -0.437185        -0.160185
 C         1.309647         0.448558        -0.101449
 C         1.742162         0.788372         1.304619
 C         3.205158         0.799649         0.746889
 O         4.416325         0.267276         1.353627
 C         3.700427         2.135424         0.110260
 O         2.848140         2.358633        -1.099278
 C         2.037857         1.242832        -1.265598
 C         2.663155         0.038520        -0.621430
 H         0.230982        -1.346784         0.436888
 H        -0.881794         0.238266         0.147082
 H        -0.309355        -0.569536        -1.229000
 H         1.405280         1.665314         1.876025
 H         1.444105        -0.035458         1.966264
 H         4.365438         0.536026         2.266000
 H         3.723679         3.025001         0.765707
 H         4.698528         2.090815        -0.197510
 H         1.425984         1.172240        -2.249699
 H         2.940008        -0.907031        -1.093537
