19
Iteration:   624charge 0 multiplicity 1
 C        -0.076250        -0.350279        -0.367069
 C         1.330272         0.432473        -0.079444
 C         1.823726         0.855814         1.340504
 C         3.362822         0.790283         0.718414
 O         4.340998         0.128848         1.404454
 C         3.596152         2.310324         0.095981
 O         2.645625         2.383401        -1.000338
 C         2.117857         1.114935        -1.226503
 C         2.823000         0.010779        -0.489429
 H        -0.274222        -1.220257         0.293466
 H        -0.949253         0.274483        -0.404917
 H        -0.186809        -0.865263        -1.390555
 H         1.494075         1.868477         1.762690
 H         1.547487         0.007693         2.018492
 H         5.099110         0.113243         0.821198
 H         3.382073         3.143452         0.754806
 H         4.622235         2.547507        -0.140728
 H         1.734962         0.830859        -2.282844
 H         3.396749        -0.792651        -0.874599
