19
Iteration:  3926
 C         0.256450        -0.595064        -0.709328
 C         1.407803         0.285628        -0.125812
 C         1.709193         0.542930         1.306547
 C         3.194782         0.863793         0.787540
 O         4.393972         0.242613         1.407473
 C         3.469511         2.339248         0.326015
 O         2.714997         2.525107        -0.848280
 C         2.027096         1.393201        -1.100599
 C         2.767827         0.156378        -0.702260
 H         0.224814        -1.690560        -0.371537
 H        -0.674160        -0.180951        -0.492532
 H         0.443988        -0.687847        -1.819615
 H         1.146907         1.434177         1.760582
 H         1.734869        -0.288969         2.038497
 H         4.365061        -0.699304         1.396315
 H         3.127565         3.159878         1.010724
 H         4.491836         2.335120         0.188714
 H         1.524749         1.330300        -2.097004
 H         3.265561        -0.735841        -1.012180
