19
Iteration:   328charge 0 multiplicity 1
 C         0.049481        -0.333527        -0.146121
 C         1.364888         0.414165        -0.006693
 C         1.826925         0.917998         1.321402
 C         3.222665         0.796494         0.648267
 O         4.297851         0.178557         1.336470
 C         3.660036         2.171103         0.081399
 O         2.765405         2.334450        -1.100418
 C         2.096032         1.195658        -1.232063
 C         2.730485        -0.001864        -0.627393
 H        -0.081695        -1.251308         0.533470
 H        -0.840068         0.345668         0.176775
 H        -0.124073        -0.626208        -1.240303
 H         1.577382         1.890837         1.782151
 H         1.663605         0.228133         2.191875
 H         3.896841        -0.173221         2.151080
 H         3.467941         3.072719         0.643579
 H         4.628858         2.153914        -0.419731
 H         1.541507         1.198480        -2.198167
 H         3.242226        -0.892233        -0.948221
