19
Iteration:   782
 C         0.024096        -0.323248        -0.366084
 C         1.363392         0.291701        -0.154958
 C         1.850398         0.704672         1.309704
 C         3.293336         0.839880         0.648457
 O         4.330854         0.328656         1.412788
 C         3.649899         2.120632         0.126706
 O         2.662092         2.469102        -0.884147
 C         2.017687         1.206334        -1.239406
 C         2.790618         0.010915        -0.617645
 H        -0.056990        -0.942538         0.523934
 H        -0.817432         0.416284        -0.492164
 H         0.125166        -1.069882        -1.130120
 H         1.428414         1.636804         1.826686
 H         1.958321        -0.237327         1.929319
 H         3.864486         0.228641         2.278895
 H         3.843428         2.884242         0.925918
 H         4.595461         2.003030        -0.449638
 H         1.606975         1.094939        -2.300489
 H         3.077040        -0.903609        -1.127791
