19
Iteration:  1047
 C         0.159132        -0.446935        -0.404821
 C         1.370166         0.377441        -0.183352
 C         1.769264         0.782466         1.221077
 C         3.281647         0.812216         0.671738
 O         4.430254         0.180626         1.404162
 C         3.459804         2.291711         0.342793
 O         2.673292         2.439346        -0.957191
 C         2.059295         1.228425        -1.206666
 C         2.817425         0.073636        -0.593658
 H         0.036646        -1.392907         0.154228
 H        -0.758867        -0.023539         0.101492
 H        -0.078234        -0.469165        -1.460988
 H         1.355426         1.669497         1.671738
 H         1.697572        -0.043214         1.937262
 H         4.170588        -0.790637         1.398883
 H         3.065454         2.968372         1.124914
 H         4.501502         2.516163         0.073172
 H         1.625471         1.130091        -2.228122
 H         3.119928        -0.826417        -1.163915
