19
Iteration:  2891
 C         0.113504        -0.571567        -0.642675
 C         1.331517         0.312331        -0.161369
 C         1.725848         0.616408         1.337511
 C         3.217709         0.793895         0.717492
 O         4.485087         0.288788         1.325340
 C         3.545330         2.265910         0.356763
 O         2.689745         2.542207        -0.871566
 C         1.984125         1.271812        -1.093477
 C         2.781757         0.168022        -0.624068
 H         0.158829        -1.588690        -0.045445
 H        -0.919599        -0.132566        -0.614639
 H         0.384194        -0.671577        -1.763392
 H         1.365532         1.491587         1.951863
 H         1.750565        -0.219163         1.993486
 H         4.409961        -0.595214         1.670801
 H         3.347922         2.938259         1.172027
 H         4.590898         2.543601         0.034004
 H         1.896835         1.387602        -2.169117
 H         3.203900        -0.641443        -1.242094
