19
Iteration:  3448
 C         0.159355        -0.598629        -0.597431
 C         1.376921         0.273889        -0.332619
 C         1.872686         0.598827         1.152663
 C         3.311590         0.773227         0.636965
 O         4.371544         0.145400         1.427126
 C         3.479406         2.359854         0.351956
 O         2.412548         2.557680        -0.616296
 C         2.109532         1.325227        -1.149167
 C         2.891261         0.194131        -0.675661
 H         0.189300        -1.472076        -0.034451
 H        -0.810097        -0.027093        -0.474314
 H         0.062402        -0.682114        -1.719702
 H         1.499880         1.481320         1.680528
 H         1.741645        -0.308096         1.801471
 H         4.531601         0.336970         2.389770
 H         3.380290         2.969970         1.229263
 H         4.545332         2.524701         0.077215
 H         1.986857         1.379767        -2.259827
 H         3.294709        -0.491230        -1.370742
