19
Iteration:   170
 C        -0.056992        -0.305402        -0.077997
 C         1.332206         0.448134        -0.105727
 C         1.851439         0.906184         1.308516
 C         3.289360         0.810782         0.684243
 O         4.289526         0.119037         1.474545
 C         3.671064         2.240109         0.023361
 O         2.792431         2.329698        -1.174568
 C         2.045314         1.127851        -1.286386
 C         2.742562         0.052394        -0.518903
 H        -0.158952        -1.038641         0.741541
 H        -0.823474         0.453586         0.081100
 H        -0.329121        -0.841074        -0.999383
 H         1.574794         1.875444         1.610874
 H         1.748928         0.102863         2.033589
 H         4.758091        -0.423590         0.837191
 H         3.357500         3.078205         0.684545
 H         4.712767         2.325150        -0.224618
 H         1.573731         0.930065        -2.187115
 H         3.161756        -0.925255        -0.780593
