19
Iteration:  4651
 C         0.202113        -0.544920        -0.622485
 C         1.400636         0.281546        -0.234764
 C         1.796415         0.511957         1.323988
 C         3.207938         0.860017         0.754958
 O         4.309270         0.236231         1.320943
 C         3.407344         2.329280         0.377911
 O         2.699105         2.525173        -0.733605
 C         2.087763         1.315522        -1.218479
 C         2.878760         0.237444        -0.658846
 H         0.142045        -1.589814        -0.061628
 H        -0.748871         0.030356        -0.586736
 H         0.312906        -0.801360        -1.656979
 H         1.067648         1.194742         1.808766
 H         1.821650        -0.520221         1.778071
 H         4.033793        -0.696914         1.474721
 H         3.190285         3.044839         1.205552
 H         4.535092         2.471070         0.309999
 H         1.848076         1.486018        -2.237901
 H         3.278094        -0.598848        -1.165828
