19
Iteration:  3352charge 0 multiplicity 1
 C         0.235866        -0.594908        -0.490973
 C         1.435392         0.285823        -0.291485
 C         1.785237         0.630235         1.210779
 C         3.214932         0.738105         0.697473
 O         4.294473         0.162785         1.411065
 C         3.434132         2.249698         0.446573
 O         2.525970         2.633459        -0.694349
 C         2.116916         1.328730        -1.254315
 C         2.930597         0.149225        -0.773800
 H         0.292752        -1.406040         0.222770
 H        -0.663521         0.094566        -0.135501
 H         0.053484        -0.825090        -1.575708
 H         1.395849         1.595135         1.601592
 H         1.609670        -0.161692         1.893185
 H         5.063609         0.106827         0.815067
 H         2.914943         2.918419         1.321377
 H         4.479250         2.726240         0.232777
 H         1.643948         1.417823        -2.262842
 H         3.623071        -0.569231        -1.176903
