19
Iteration:  4603charge 0 multiplicity 1
 C         0.182307        -0.613514        -0.626325
 C         1.373331         0.304322        -0.295383
 C         1.846659         0.699351         1.100550
 C         3.361710         0.790322         0.646089
 O         4.290252         0.265616         1.536294
 C         3.598822         2.247752         0.391913
 O         2.442447         2.494179        -0.568693
 C         2.095839         1.315283        -1.258661
 C         2.840185         0.180577        -0.748413
 H         0.285281        -1.677488        -0.342824
 H        -0.600150        -0.164356        -0.037961
 H        -0.133810        -0.529761        -1.723998
 H         1.508645         1.648932         1.668432
 H         1.800500        -0.152619         1.751149
 H         4.101576        -0.656786         1.721059
 H         3.472585         2.934041         1.256373
 H         4.606276         2.562512         0.022937
 H         1.672633         1.637256        -2.262088
 H         3.355166        -0.760897        -1.113965
