19
Iteration:    94charge 0 multiplicity 1
 C        -0.225667        -0.215054        -0.330450
 C         1.248033         0.341307        -0.143207
 C         1.909549         1.040460         1.213245
 C         3.422378         0.810203         0.644152
 O         4.531327         0.230782         1.436700
 C         3.812011         2.133368        -0.134767
 O         2.554634         2.338701        -0.884529
 C         1.979262         1.030908        -1.175300
 C         2.729807        -0.054184        -0.366539
 H        -0.447496        -1.132700         0.302970
 H        -0.931497         0.505856         0.136413
 H        -0.453397        -0.381318        -1.409102
 H         1.661062         2.041683         1.512604
 H         1.725535         0.371228         2.043531
 H         4.177480        -0.187629         2.285046
 H         4.023555         2.963990         0.583374
 H         4.651361         1.873630        -0.820732
 H         1.902268         0.799810        -2.213440
 H         3.198579        -0.934121        -0.813872
