19
Iteration:  3608charge 0 multiplicity 1
 C         0.239936        -0.550263        -0.526431
 C         1.413957         0.323192        -0.276457
 C         1.764040         0.606890         1.187113
 C         3.261179         0.748883         0.688257
 O         4.289020         0.329952         1.366022
 C         3.408119         2.240882         0.429013
 O         2.597769         2.539611        -0.671952
 C         2.172026         1.337156        -1.224094
 C         2.838400         0.128423        -0.721138
 H         0.484711        -1.347483         0.294310
 H        -0.677177        -0.096634        -0.182702
 H         0.146937        -0.885655        -1.565406
 H         1.199968         1.363266         1.677633
 H         1.768632        -0.317095         1.763837
 H         4.400348        -0.620754         1.229659
 H         3.079278         2.926570         1.319659
 H         4.515831         2.298633         0.188124
 H         1.666996         1.384848        -2.230462
 H         3.434735        -0.547554        -1.342502
