19
Iteration:  4226charge 0 multiplicity 1
 C         0.133942        -0.686849        -0.575101
 C         1.389588         0.323427        -0.257843
 C         1.854654         0.571577         1.161611
 C         3.280836         0.890687         0.687302
 O         4.331454         0.071467         1.516376
 C         3.450384         2.432351         0.405058
 O         2.609863         2.600379        -0.734763
 C         2.103187         1.420526        -1.219293
 C         2.888833         0.141504        -0.706202
 H         0.268075        -1.629142        -0.114280
 H        -0.838934        -0.326036        -0.033114
 H         0.101485        -0.946427        -1.607794
 H         1.462799         1.416294         1.606316
 H         1.720177        -0.422003         1.705645
 H         4.113072        -0.741996         1.103957
 H         2.936683         2.945226         1.236973
 H         4.478952         2.779834         0.224255
 H         1.521971         1.587110        -2.145597
 H         3.345543        -0.441343        -1.490141
