19
Iteration:  2533
 C         0.049042        -0.391259        -0.663993
 C         1.357278         0.217022        -0.250600
 C         1.808163         0.506758         1.201877
 C         3.371625         0.721581         0.704097
 O         4.518740         0.482260         1.582759
 C         3.611085         2.192675         0.156132
 O         2.437780         2.532228        -0.566362
 C         1.948801         1.255932        -1.155785
 C         2.860513         0.090947        -0.768293
 H         0.028827        -1.420623        -0.303282
 H        -0.783678         0.138579        -0.127876
 H        -0.065932        -0.417809        -1.759738
 H         1.456412         1.401745         1.657900
 H         1.641202        -0.192667         2.042371
 H         4.641228        -0.447973         1.860832
 H         3.740069         3.020025         0.863042
 H         4.455188         2.023355        -0.590655
 H         1.610664         1.281430        -2.234067
 H         3.275552        -0.650541        -1.406769
