19
Iteration:  3430charge 0 multiplicity 1
 C         0.237435        -0.530159        -0.722103
 C         1.402585         0.287296        -0.242376
 C         1.839041         0.617693         1.195623
 C         3.305755         0.807781         0.672632
 O         4.392511         0.289765         1.417571
 C         3.554485         2.183580         0.287939
 O         2.445304         2.551643        -0.495906
 C         2.010598         1.286029        -1.206024
 C         2.827631         0.105160        -0.717069
 H         0.448189        -1.554074        -0.277668
 H        -0.729428        -0.037786        -0.339933
 H         0.168561        -0.539920        -1.804479
 H         1.217960         1.390460         1.669256
 H         1.660275        -0.276742         1.759624
 H         4.010715         0.447931         2.335983
 H         3.775140         2.801603         1.284564
 H         4.415445         2.464728        -0.304260
 H         1.433145         1.500632        -2.117106
 H         3.445854        -0.664919        -1.238980
