19
Iteration:  4398charge 0 multiplicity 1
 C         0.272424        -0.545903        -0.658672
 C         1.441733         0.312734        -0.245670
 C         1.781530         0.609631         1.201892
 C         3.239310         0.828741         0.748112
 O         4.318062         0.209966         1.461411
 C         3.586350         2.270286         0.293339
 O         2.463868         2.505675        -0.651463
 C         2.015685         1.331789        -1.157644
 C         2.900732         0.243560        -0.668249
 H         0.445051        -1.687885        -0.493831
 H        -0.722635        -0.217389        -0.446976
 H         0.257906        -0.442998        -1.787429
 H         1.106743         1.305897         1.837474
 H         1.583214        -0.390357         1.622336
 H         4.141320        -0.781567         1.561859
 H         3.625374         3.127974         0.997119
 H         4.530778         2.187407        -0.238741
 H         1.443881         1.352242        -2.051941
 H         3.603556        -0.421932        -1.172844
