19
Iteration:  4580
 C         0.232016        -0.485355        -0.717742
 C         1.472053         0.185957        -0.205245
 C         1.788743         0.573349         1.159017
 C         3.312879         0.797252         0.685533
 O         4.235621         0.278492         1.551846
 C         3.575170         2.232562         0.131004
 O         2.459344         2.602729        -0.557690
 C         2.006415         1.295323        -1.048366
 C         2.923313         0.158274        -0.709645
 H         0.297678        -1.530496        -0.538237
 H        -0.638513        -0.098337        -0.136505
 H         0.114328        -0.336927        -1.836039
 H         1.447534         1.504034         1.628019
 H         1.770637        -0.262758         1.856577
 H         3.887494        -0.587186         1.804695
 H         3.845180         2.999846         0.855172
 H         4.473564         2.217770        -0.514002
 H         1.766439         1.342674        -2.111030
 H         3.563475        -0.348449        -1.501342
