19
Iteration:  3925charge 0 multiplicity 1
 C         0.260782        -0.596032        -0.714989
 C         1.396621         0.278506        -0.126932
 C         1.714100         0.548894         1.307168
 C         3.196356         0.864304         0.792586
 O         4.397223         0.243149         1.404971
 C         3.476612         2.344319         0.333978
 O         2.709388         2.519898        -0.856759
 C         2.028985         1.391689        -1.099300
 C         2.759372         0.157649        -0.698611
 H         0.215888        -1.692504        -0.386351
 H        -0.698225        -0.185610        -0.494681
 H         0.446500        -0.687295        -1.809203
 H         1.150130         1.440279         1.757160
 H         1.730665        -0.281347         2.014361
 H         4.396531        -0.708526         1.399721
 H         3.140314         3.147270         1.033066
 H         4.518500         2.361399         0.231056
 H         1.546968         1.360285        -2.098008
 H         3.239388        -0.742091        -1.011402
