19
Iteration:   557charge 0 multiplicity 1
 C        -0.042873        -0.324927        -0.267901
 C         1.276155         0.346883        -0.209609
 C         1.888269         0.816184         1.192400
 C         3.309433         0.815053         0.697569
 O         4.417818         0.332151         1.461879
 C         3.777658         2.125021         0.043571
 O         2.635417         2.411920        -0.906360
 C         2.001221         1.180824        -1.245031
 C         2.713828        -0.033437        -0.528651
 H        -0.258372        -0.971553         0.630396
 H        -0.853429         0.321308        -0.497729
 H        -0.006362        -0.967210        -1.188843
 H         1.493542         1.646411         1.855102
 H         1.711136        -0.102059         1.800799
 H         4.062621        -0.251242         2.203865
 H         3.636226         2.924558         0.802812
 H         4.796898         2.224477        -0.391624
 H         1.765633         1.207311        -2.332894
 H         3.103289        -0.959534        -1.032906
