19
Iteration:  4447charge 0 multiplicity 1
 C         0.196709        -0.492359        -0.802200
 C         1.400448         0.285022        -0.237779
 C         1.796096         0.641892         1.190410
 C         3.307798         0.782010         0.661836
 O         4.458348         0.394200         1.559679
 C         3.553320         2.168594         0.313325
 O         2.466537         2.446198        -0.519346
 C         1.964536         1.262598        -1.191935
 C         2.870207         0.163185        -0.764425
 H         0.190645        -1.457461        -0.470457
 H        -0.714543         0.015839        -0.372986
 H        -0.088649        -0.413577        -1.823237
 H         1.264448         1.499790         1.518443
 H         1.689600        -0.119596         1.968236
 H         4.236450        -0.396597         2.034537
 H         3.450930         2.729431         1.238540
 H         4.574369         2.309396        -0.100220
 H         1.620185         1.273904        -2.270917
 H         3.293897        -0.531430        -1.454252
