19
Iteration:  1761
 C         0.218079        -0.510402        -0.581413
 C         1.296937         0.401758        -0.139353
 C         1.844538         0.621122         1.229738
 C         3.301636         0.759574         0.721261
 O         4.504142         0.268760         1.385586
 C         3.364638         2.286051         0.368161
 O         2.748510         2.503282        -0.949763
 C         1.992563         1.319118        -1.142193
 C         2.684162         0.106697        -0.643000
 H         0.221911        -1.506938        -0.038884
 H        -0.770300        -0.070721        -0.148815
 H         0.115809        -0.671821        -1.766304
 H         1.361761         1.267511         1.991656
 H         1.677322        -0.368108         1.765826
 H         4.249133        -0.503424         2.016496
 H         2.801373         2.852232         1.147949
 H         4.484553         2.467294         0.411488
 H         1.469815         1.283950        -2.143658
 H         3.309482        -0.816435        -1.046020
