19
Iteration:  3578
 C         0.092402        -0.535748        -0.625924
 C         1.443509         0.257537        -0.282593
 C         1.865543         0.658592         1.056484
 C         3.439630         0.824774         0.735092
 O         4.362865         0.180395         1.556410
 C         3.501965         2.313593         0.310236
 O         2.405218         2.556161        -0.628306
 C         2.023511         1.316076        -1.200229
 C         2.922802         0.161071        -0.698146
 H         0.195055        -1.553322        -0.206431
 H        -0.591727        -0.029344        -0.007661
 H        -0.118059        -0.702702        -1.717122
 H         1.296477         1.477478         1.585531
 H         1.933041        -0.291206         1.706457
 H         4.076379        -0.721378         1.895743
 H         3.345937         2.977581         1.110240
 H         4.383667         2.452517        -0.257194
 H         1.597470         1.285354        -2.209029
 H         3.501883        -0.540868        -1.349104
