19
Iteration:  4664charge 0 multiplicity 1
 C         0.198773        -0.503888        -0.751604
 C         1.320690         0.328068        -0.165187
 C         1.868853         0.500196         1.230154
 C         3.272972         0.826709         0.685692
 O         4.321121         0.256452         1.431391
 C         3.492974         2.347505         0.447712
 O         2.619476         2.563150        -0.811639
 C         2.064197         1.299139        -1.107678
 C         2.810357         0.098305        -0.654969
 H         0.064702        -1.412344        -0.088486
 H        -0.842897         0.000833        -0.638966
 H         0.426103        -0.841064        -1.757107
 H         1.495947         1.185608         1.981627
 H         2.032343        -0.465157         1.826397
 H         4.109051        -0.690024         1.522465
 H         3.010568         2.967350         1.189935
 H         4.502614         2.621092         0.133562
 H         1.622242         1.244903        -2.073581
 H         3.565781        -0.385343        -1.287569
