19
Iteration:  3590
 C         0.167823        -0.563269        -0.506177
 C         1.366711         0.300801        -0.358854
 C         1.880706         0.645089         1.140658
 C         3.306248         0.741644         0.610118
 O         4.366767         0.228257         1.545655
 C         3.490756         2.308014         0.377672
 O         2.442923         2.578641        -0.652099
 C         2.078381         1.271195        -1.226969
 C         2.947120         0.174899        -0.713805
 H         0.208013        -1.536032        -0.089228
 H        -0.783497        -0.089662        -0.254923
 H        -0.048491        -0.609321        -1.620278
 H         1.475086         1.574342         1.665185
 H         1.589071        -0.258845         1.782343
 H         4.136394        -0.723869         1.480505
 H         3.245157         2.840776         1.240037
 H         4.481143         2.674205         0.144970
 H         1.890098         1.428079        -2.275749
 H         3.381789        -0.661729        -1.303390
