19
Iteration:   469charge 0 multiplicity 1
 C        -0.005023        -0.442287        -0.189508
 C         1.274160         0.459512        -0.136055
 C         1.771593         0.785153         1.278475
 C         3.266882         0.832352         0.748918
 O         4.382551         0.261411         1.346075
 C         3.698154         2.113995         0.099084
 O         2.847346         2.371113        -1.076565
 C         2.042437         1.229934        -1.248448
 C         2.635274         0.058333        -0.565794
 H         0.039653        -1.396881         0.340196
 H        -0.772327         0.093391         0.282108
 H        -0.269437        -0.688008        -1.212406
 H         1.526095         1.721290         1.828903
 H         1.713211        -0.085647         1.971702
 H         4.434594         0.741171         2.215029
 H         3.517679         2.984140         0.754505
 H         4.783415         1.877710        -0.250421
 H         1.562265         1.158592        -2.150761
 H         2.974219        -0.890012        -1.016297
