19
Iteration:  4234charge 0 multiplicity 1
 C         0.144008        -0.659468        -0.555698
 C         1.370221         0.359556        -0.367837
 C         1.869192         0.558975         1.182881
 C         3.260490         0.777499         0.706011
 O         4.303737         0.184321         1.475067
 C         3.497348         2.361839         0.424190
 O         2.568508         2.652371        -0.706900
 C         2.109789         1.356315        -1.190130
 C         2.889780         0.133461        -0.703874
 H         0.370524        -1.688287        -0.190465
 H        -0.703927        -0.252172        -0.077140
 H        -0.118154        -0.807393        -1.624119
 H         1.390685         1.386035         1.750027
 H         1.825144        -0.329093         1.741598
 H         4.248867        -0.743965         1.299821
 H         3.165523         2.905476         1.361055
 H         4.460034         2.758666         0.079619
 H         1.756020         1.414752        -2.268749
 H         3.341967        -0.595815        -1.372121
