19
Iteration:  4896charge 0 multiplicity 1
 C         0.213766        -0.444844        -0.626527
 C         1.373962         0.349625        -0.263842
 C         1.789022         0.514528         1.142683
 C         3.259135         0.743846         0.707939
 O         4.358488         0.386304         1.437474
 C         3.479801         2.200728         0.399117
 O         2.548700         2.488306        -0.677989
 C         2.145375         1.296570        -1.207714
 C         2.836895         0.163596        -0.637436
 H         0.180658        -1.387053        -0.210410
 H        -0.773282         0.066569        -0.441823
 H         0.194447        -0.578746        -1.742200
 H         1.202120         1.251354         1.665091
 H         1.744185        -0.317797         1.892746
 H         4.378689        -0.539989         1.607569
 H         3.233240         2.831336         1.271821
 H         4.527340         2.230627         0.016015
 H         1.775988         1.309152        -2.226540
 H         3.229486        -0.654989        -1.217500
