19
Iteration:  2910charge 0 multiplicity 1
 C         0.210098        -0.511738        -0.656121
 C         1.370654         0.315120        -0.106162
 C         1.853034         0.677077         1.287053
 C         3.245712         0.833955         0.681115
 O         4.404375         0.247822         1.291623
 C         3.465986         2.307470         0.443896
 O         2.625190         2.484663        -0.840501
 C         2.121792         1.258839        -1.205196
 C         2.714410         0.100039        -0.542874
 H         0.050264        -1.306273        -0.038235
 H        -0.825630        -0.061110        -0.574450
 H         0.409148        -0.770148        -1.701671
 H         1.449933         1.535103         1.841541
 H         1.691040        -0.130768         2.000969
 H         4.161469        -0.622970         1.017124
 H         3.059848         2.916336         1.243698
 H         4.451078         2.570065         0.134273
 H         1.394887         1.227073        -1.998586
 H         3.293795        -0.758250        -1.032491
