19
Iteration:   130charge 0 multiplicity 1
 C         0.054743        -0.215044        -0.237732
 C         1.339133         0.395275        -0.019108
 C         1.932253         0.903947         1.326563
 C         3.304800         0.748800         0.610570
 O         4.249445         0.311338         1.460220
 C         3.772101         1.978573        -0.055777
 O         2.693855         2.354575        -0.990589
 C         1.938987         1.152050        -1.238560
 C         2.665563        -0.093277        -0.558261
 H         0.023928        -1.289673         0.153906
 H        -0.611011         0.516883         0.260758
 H        -0.356720        -0.270661        -1.281654
 H         1.575562         1.939521         1.694413
 H         1.897127         0.091385         2.090962
 H         4.593593         1.181675         1.816691
 H         4.033924         2.816366         0.600774
 H         4.722014         1.819934        -0.688836
 H         1.475429         1.257531        -2.209589
 H         2.842750        -1.091183        -0.957088
