19
Iteration:  4555
 C         0.158835        -0.485221        -0.844135
 C         1.417049         0.270590        -0.236575
 C         1.754524         0.551845         1.256379
 C         3.292375         0.874891         0.820354
 O         4.426270         0.280251         1.492693
 C         3.634037         2.222712         0.190313
 O         2.433958         2.594864        -0.579031
 C         1.993478         1.281085        -1.185976
 C         2.848284         0.131361        -0.628598
 H         0.229150        -1.498966        -0.436135
 H        -0.911856        -0.162559        -0.490038
 H         0.315331        -0.669092        -1.889537
 H         1.311913         1.316069         1.872616
 H         1.903524        -0.456578         1.771045
 H         4.041316        -0.530118         1.949130
 H         3.832300         3.017380         0.909334
 H         4.523622         2.162131        -0.429841
 H         1.772980         1.358544        -2.263280
 H         3.412553        -0.610964        -1.128252
