19
Iteration:  3079charge 0 multiplicity 1
 C         0.134037        -0.564707        -0.431585
 C         1.303446         0.396477        -0.269363
 C         1.891013         0.590022         1.142031
 C         3.296115         0.753799         0.656964
 O         4.319133         0.169091         1.481446
 C         3.521133         2.272685         0.322630
 O         2.558032         2.549431        -0.734316
 C         2.111959         1.335328        -1.284373
 C         2.840541         0.144076        -0.706829
 H         0.179051        -1.450811         0.281652
 H        -0.824604        -0.013230        -0.365912
 H         0.003579        -0.974690        -1.447941
 H         1.479174         1.341239         1.889112
 H         1.703021        -0.340008         1.652286
 H         4.720235         0.981761         1.842885
 H         3.252018         2.823982         1.201366
 H         4.576813         2.534727         0.171956
 H         1.682262         1.303049        -2.304404
 H         3.394452        -0.752798        -1.100285
