19
Iteration:  3710charge 0 multiplicity 1
 C         0.002540        -0.561644        -0.560684
 C         1.398710         0.252630        -0.388669
 C         1.769803         0.547158         1.020461
 C         3.310960         0.857563         0.711576
 O         4.356691         0.341884         1.561935
 C         3.630999         2.294726         0.264977
 O         2.430836         2.507571        -0.558989
 C         2.144604         1.315644        -1.186392
 C         2.966183         0.138477        -0.680975
 H         0.067562        -1.513186         0.034883
 H        -0.777010         0.121774        -0.134120
 H        -0.274065        -0.800726        -1.649462
 H         1.278098         1.346018         1.607196
 H         1.885007        -0.255836         1.785377
 H         3.985569        -0.600647         1.546464
 H         3.687976         2.758525         1.250097
 H         4.628869         2.465818        -0.197482
 H         1.944469         1.333935        -2.246525
 H         3.666280        -0.490260        -1.267107
