19
Iteration:  3522
 C         0.173541        -0.581975        -0.784376
 C         1.318243         0.355880        -0.208918
 C         1.790514         0.541241         1.228935
 C         3.371486         0.733206         0.729027
 O         4.500067         0.257051         1.434297
 C         3.544948         2.308071         0.325851
 O         2.480204         2.525827        -0.629549
 C         1.985380         1.326749        -1.178818
 C         2.783414         0.165267        -0.644674
 H         0.164208        -1.625619        -0.279711
 H        -0.811104        -0.201711        -0.657462
 H         0.194728        -0.697260        -1.912822
 H         1.500347         1.417607         1.847735
 H         1.580304        -0.408483         1.850588
 H         4.465280         0.406545         2.354972
 H         3.478495         3.168972         0.974087
 H         4.563205         2.522641        -0.111461
 H         1.761309         1.333758        -2.278574
 H         3.190267        -0.540516        -1.328683
