19
Iteration:  1316charge 0 multiplicity 1
 C         0.145222        -0.638208        -0.425916
 C         1.284558         0.402319        -0.186586
 C         1.809794         0.603937         1.234716
 C         3.239331         0.848665         0.720953
 O         4.236095         0.159041         1.393810
 C         3.523043         2.298297         0.377996
 O         2.707117         2.558020        -0.837888
 C         2.162438         1.314980        -1.304595
 C         2.792549         0.159973        -0.657154
 H         0.195137        -1.416525         0.389855
 H        -0.848743        -0.168166        -0.397793
 H         0.165652        -1.252040        -1.383033
 H         1.443071         1.374121         1.942049
 H         1.934199        -0.329446         1.791987
 H         5.072070         0.241382         0.808769
 H         3.193868         3.029864         1.138313
 H         4.605933         2.538560         0.063329
 H         1.678965         1.289575        -2.314173
 H         3.361331        -0.573063        -1.115040
