19
Iteration:  2636
 C         0.257265        -0.594173        -0.615411
 C         1.240931         0.403623        -0.197178
 C         1.803030         0.562798         1.326713
 C         3.262458         0.830601         0.738179
 O         4.440513         0.288759         1.364720
 C         3.547170         2.233278         0.273250
 O         2.691456         2.588109        -0.827767
 C         1.982213         1.302863        -1.190323
 C         2.664919         0.151563        -0.589819
 H         0.420984        -1.493918        -0.070301
 H        -0.766025        -0.275426        -0.307963
 H         0.230697        -0.916054        -1.644601
 H         1.371095         1.349059         2.087555
 H         1.657996        -0.445933         1.789559
 H         4.392304        -0.565834         1.760729
 H         3.548988         3.021092         1.074077
 H         4.628997         2.311518        -0.096111
 H         1.673058         1.191380        -2.263752
 H         3.017869        -0.793724        -0.936955
