19
Iteration:  4610charge 0 multiplicity 1
 C         0.175354        -0.624911        -0.599775
 C         1.367561         0.330136        -0.298713
 C         1.800140         0.713582         1.070739
 C         3.324031         0.787966         0.656596
 O         4.350822         0.245154         1.509860
 C         3.506378         2.261791         0.384529
 O         2.521453         2.511680        -0.561056
 C         2.107381         1.344908        -1.248750
 C         2.851686         0.148439        -0.721052
 H         0.476968        -1.583280        -0.259596
 H        -0.747471        -0.202937        -0.049782
 H        -0.180605        -0.644982        -1.617453
 H         1.644860         1.576901         1.650756
 H         1.565336        -0.189157         1.714484
 H         4.140625        -0.716017         1.695350
 H         3.255882         2.853195         1.266246
 H         4.450323         2.662328         0.023942
 H         1.951946         1.357848        -2.290263
 H         3.277211        -0.676714        -1.298983
