19
Iteration:   213
 C        -0.142340        -0.247861        -0.305053
 C         1.273978         0.399187        -0.046294
 C         1.905445         0.968746         1.210878
 C         3.385699         0.782607         0.688648
 O         4.499884         0.228579         1.394607
 C         3.685773         2.116587        -0.021070
 O         2.642091         2.328363        -0.971305
 C         2.007878         1.093672        -1.219963
 C         2.726762        -0.009447        -0.473066
 H        -0.382906        -0.859187         0.531057
 H        -0.920471         0.477002        -0.262577
 H        -0.120576        -0.848806        -1.192579
 H         1.651590         1.992755         1.541363
 H         1.649962         0.245738         2.042394
 H         4.145455        -0.118653         2.218017
 H         3.621301         2.922083         0.750784
 H         4.612914         2.103573        -0.536794
 H         1.699656         1.023783        -2.196740
 H         3.044849        -1.015236        -0.755276
