19
Iteration:  4867
 C         0.014789        -0.371461        -0.630624
 C         1.449406         0.171181        -0.350129
 C         1.810597         0.484372         1.097765
 C         3.370806         0.802950         0.708591
 O         4.353267         0.289397         1.584279
 C         3.549702         2.275643         0.244618
 O         2.363346         2.594633        -0.592936
 C         2.177686         1.224052        -1.179141
 C         3.011314         0.129280        -0.639022
 H        -0.249788        -1.367520        -0.143914
 H        -0.720884         0.442187        -0.470323
 H        -0.190006        -0.541319        -1.738394
 H         1.115088         1.379905         1.356328
 H         1.908118        -0.229924         1.908176
 H         4.201995        -0.648307         1.757118
 H         3.476519         2.987170         1.131153
 H         4.465544         2.420017        -0.350003
 H         1.589733         1.313694        -2.080645
 H         3.709515        -0.407650        -1.311151
