19
Iteration:  3730
 C         0.206878        -0.508241        -0.538785
 C         1.460725         0.270213        -0.274505
 C         1.824245         0.574821         1.151494
 C         3.233652         0.757308         0.635381
 O         4.248891         0.290406         1.556565
 C         3.495235         2.300168         0.351120
 O         2.551200         2.570044        -0.666946
 C         2.046536         1.278496        -1.255107
 C         2.915985         0.155918        -0.717631
 H         0.394318        -1.468117         0.032619
 H        -0.649734        -0.041763        -0.167528
 H         0.014592        -0.678283        -1.630661
 H         1.313081         1.370262         1.593832
 H         1.686761        -0.343002         1.734057
 H         4.472451        -0.668980         1.444667
 H         3.480943         3.067610         1.219218
 H         4.589475         2.342002        -0.021245
 H         1.731159         1.367242        -2.278364
 H         3.343387        -0.566952        -1.444066
