19
Iteration:  3469charge 0 multiplicity 1
 C         0.217223        -0.529657        -0.500468
 C         1.488318         0.240907        -0.238043
 C         1.713544         0.557191         1.163124
 C         3.301726         0.838266         0.671160
 O         4.289071         0.039571         1.317791
 C         3.397509         2.340317         0.424515
 O         2.483443         2.618776        -0.699810
 C         2.096207         1.310603        -1.211156
 C         3.025191         0.239029        -0.705446
 H         0.116262        -1.311569         0.238296
 H        -0.736914         0.012883        -0.443345
 H         0.081581        -0.986270        -1.533189
 H         1.080416         1.292543         1.713751
 H         2.015164        -0.331966         1.791660
 H         4.690954         0.394041         2.089815
 H         2.955103         3.023040         1.097840
 H         4.556246         2.602328         0.229105
 H         1.669266         1.339687        -2.245206
 H         3.713280        -0.448224        -1.143902
