19
Iteration:  2504charge 0 multiplicity 1
 C         0.148744        -0.470250        -0.689609
 C         1.311219         0.246055        -0.137710
 C         1.852630         0.587451         1.277134
 C         3.318916         0.780863         0.655424
 O         4.429927         0.358852         1.326849
 C         3.512419         2.297484         0.288509
 O         2.567255         2.521731        -0.690408
 C         1.993166         1.232005        -1.153553
 C         2.799219         0.105458        -0.592118
 H         0.233756        -1.512265        -0.341856
 H        -0.772949        -0.019711        -0.221986
 H         0.095707        -0.318518        -1.755044
 H         1.425123         1.475471         1.883033
 H         2.108139        -0.240791         1.950698
 H         4.106266        -0.490616         1.605143
 H         3.361822         2.937577         1.194411
 H         4.552704         2.440500        -0.014517
 H         1.810343         1.126641        -2.185681
 H         3.269615        -0.746623        -1.141356
