19
Iteration:  2238charge 0 multiplicity 1
 C         0.130489        -0.524807        -0.731770
 C         1.325153         0.268848        -0.155265
 C         1.812189         0.659401         1.266011
 C         3.319682         0.761665         0.671482
 O         4.506269         0.332539         1.483054
 C         3.595162         2.173558         0.114256
 O         2.465124         2.551408        -0.628219
 C         1.909150         1.332952        -1.049411
 C         2.880547         0.143035        -0.670707
 H         0.179167        -1.537818        -0.253003
 H        -0.782319         0.067727        -0.487687
 H         0.357427        -0.752366        -1.705172
 H         1.297467         1.562359         1.698523
 H         1.649949        -0.049360         2.089175
 H         4.492995        -0.645596         1.575560
 H         3.785743         2.836411         0.926334
 H         4.412821         2.168573        -0.585705
 H         1.514608         1.257616        -2.045422
 H         3.262340        -0.733312        -1.281690
