19
Iteration:  1616charge 0 multiplicity 1
 C         0.217937        -0.503587        -0.608803
 C         1.391838         0.352460        -0.169900
 C         1.815837         0.698931         1.297983
 C         3.296495         0.857804         0.722473
 O         4.291534         0.095343         1.310445
 C         3.396765         2.390260         0.372273
 O         2.598377         2.491076        -0.809530
 C         2.171546         1.270443        -1.140854
 C         2.819814         0.030298        -0.581296
 H         0.395703        -1.532390        -0.177143
 H        -0.894093        -0.158094        -0.303340
 H         0.238137        -0.587241        -1.733261
 H         1.288946         1.512747         1.722680
 H         1.523147         0.020872         2.108751
 H         4.897953        -0.142093         0.589226
 H         2.929324         3.116727         1.145261
 H         4.336685         2.883964         0.148365
 H         1.809509         1.090033        -2.148825
 H         3.295542        -0.667335        -1.132724
