19
Iteration:  4424
 C         0.114449        -0.568257        -0.830851
 C         1.425960         0.259541        -0.257016
 C         1.875094         0.618502         1.187888
 C         3.282977         0.757288         0.655532
 O         4.369931         0.352149         1.459263
 C         3.608150         2.264401         0.226513
 O         2.397546         2.599222        -0.501122
 C         2.121085         1.336402        -1.070492
 C         2.829959         0.045338        -0.566781
 H         0.309250        -1.554313        -0.705546
 H        -0.971899        -0.313931        -0.580892
 H         0.015222        -0.379257        -1.868189
 H         1.306672         1.435667         1.464908
 H         1.621967        -0.190659         1.896081
 H         4.173117        -0.449248         2.049686
 H         3.790581         2.944070         1.057715
 H         4.473820         2.232855        -0.456888
 H         1.906825         1.257112        -2.178165
 H         3.381793        -0.669588        -1.198361
