19
Iteration:  2283
 C         0.119079        -0.497364        -0.621103
 C         1.340451         0.272557        -0.155562
 C         1.870120         0.683122         1.207412
 C         3.346400         0.768649         0.675135
 O         4.433904         0.248461         1.387640
 C         3.574104         2.258998         0.248518
 O         2.406811         2.542842        -0.664958
 C         2.032048         1.247638        -1.170758
 C         2.872658         0.137241        -0.653467
 H         0.071528        -1.563897        -0.296249
 H        -0.736423         0.128441        -0.273609
 H         0.170184        -0.560622        -1.645884
 H         1.499707         1.543787         1.803591
 H         1.749823        -0.086540         1.961703
 H         4.090452        -0.371342         2.030984
 H         3.524179         2.986409         1.034370
 H         4.532539         2.278855        -0.222426
 H         1.670445         1.251568        -2.191725
 H         3.497530        -0.631427        -1.191911
