19
Iteration:   770charge 0 multiplicity 1
 C         0.092718        -0.429681        -0.334185
 C         1.346944         0.388391        -0.099919
 C         1.898200         0.775441         1.264315
 C         3.226290         0.796469         0.667760
 O         4.302817         0.294240         1.386979
 C         3.634929         2.171910         0.130668
 O         2.702835         2.446785        -0.935284
 C         2.057748         1.184730        -1.207231
 C         2.736398         0.071283        -0.626082
 H        -0.230672        -0.955175         0.561970
 H        -0.778714         0.316103        -0.465190
 H        -0.020183        -1.072938        -1.211940
 H         1.404291         1.645407         1.830480
 H         1.761726        -0.105413         1.958903
 H         4.100226        -0.560654         1.878397
 H         3.452108         2.959333         0.900600
 H         4.720544         2.091119        -0.121067
 H         1.642020         1.219106        -2.227993
 H         3.326541        -0.808628        -0.953399
