19
Iteration:   525
 C         0.029236        -0.228329        -0.316831
 C         1.399946         0.257466        -0.093796
 C         1.904855         0.971732         1.194473
 C         3.302173         0.788729         0.682803
 O         4.254127         0.236114         1.538210
 C         3.711789         2.079181        -0.054990
 O         2.453132         2.430578        -0.833412
 C         2.010442         1.100091        -1.162005
 C         2.905359        -0.021450        -0.555713
 H        -0.336376        -1.187445         0.064789
 H        -0.671845         0.522491        -0.075805
 H        -0.077073        -0.450841        -1.401147
 H         1.658778         2.067839         1.260869
 H         1.765947         0.326449         2.073863
 H         4.728572        -0.400396         0.990325
 H         3.955775         2.948225         0.611769
 H         4.636603         1.999524        -0.827848
 H         1.672571         0.946090        -2.206419
 H         3.557248        -0.731218        -1.149103
