19
Iteration:  2538
 C         0.103320        -0.366847        -0.624797
 C         1.383315         0.229218        -0.261133
 C         1.806527         0.484101         1.167467
 C         3.356436         0.784489         0.657421
 O         4.490951         0.463960         1.595876
 C         3.598552         2.143385         0.123438
 O         2.422295         2.534330        -0.528769
 C         1.976526         1.246009        -1.169240
 C         2.836523         0.095698        -0.744922
 H        -0.058131        -1.421404        -0.283701
 H        -0.663426         0.207816        -0.117758
 H        -0.142044        -0.485831        -1.696744
 H         1.333700         1.428966         1.652571
 H         1.784503        -0.227366         2.005105
 H         4.721014        -0.408897         1.928362
 H         3.696330         2.997188         0.817952
 H         4.437789         2.049529        -0.563234
 H         1.713670         1.279540        -2.194348
 H         3.211319        -0.693783        -1.455302
