19
Iteration:  2852charge 0 multiplicity 1
 C         0.146382        -0.427480        -0.495818
 C         1.403558         0.292675        -0.247350
 C         1.884253         0.628147         1.223838
 C         3.334508         0.776846         0.608037
 O         4.293169         0.314188         1.527441
 C         3.637988         2.215986         0.228595
 O         2.386628         2.519616        -0.637167
 C         2.093121         1.298367        -1.231217
 C         2.898201         0.094186        -0.786589
 H         0.278494        -1.425018        -0.158080
 H        -0.680131         0.051728        -0.017284
 H        -0.112034        -0.670487        -1.473736
 H         1.428517         1.346816         1.890050
 H         1.885667        -0.441172         1.635740
 H         3.730747        -0.259273         2.133832
 H         3.735774         2.929134         1.129017
 H         4.559121         2.264217        -0.347241
 H         1.750346         1.118678        -2.279981
 H         3.150381        -0.707973        -1.414909
