19
Iteration:  4339charge 0 multiplicity 1
 C         0.209570        -0.593494        -0.579185
 C         1.398705         0.316002        -0.364649
 C         1.721418         0.573590         1.175223
 C         3.194356         0.751399         0.702115
 O         4.392014         0.268308         1.367779
 C         3.468230         2.278601         0.429261
 O         2.578053         2.591784        -0.661080
 C         2.071619         1.348732        -1.160792
 C         2.937313         0.195150        -0.654901
 H         0.108301        -1.277867         0.339276
 H        -0.732270         0.026790        -0.413942
 H         0.162836        -1.247958        -1.502278
 H         1.189308         1.412016         1.734045
 H         1.524259        -0.450851         1.554958
 H         4.341933        -0.682850         1.476978
 H         3.249389         2.857489         1.325720
 H         4.552768         2.376854         0.139657
 H         1.842897         1.220194        -2.244756
 H         3.608168        -0.340212        -1.348473
