19
Iteration:  3272
 C         0.116511        -0.460670        -0.807502
 C         1.317499         0.240612        -0.219166
 C         1.764077         0.640002         1.266017
 C         3.375114         0.768983         0.664488
 O         4.469671         0.367039         1.393798
 C         3.626221         2.231688         0.234432
 O         2.414024         2.517472        -0.531948
 C         2.025015         1.228134        -1.085964
 C         2.912737         0.122400        -0.611415
 H         0.042980        -1.527291        -0.526485
 H        -0.877385         0.040896        -0.548666
 H         0.286812        -0.583849        -1.966911
 H         1.341364         1.478286         1.760399
 H         1.809693        -0.255675         1.965765
 H         4.110753        -0.343737         1.952683
 H         3.579698         3.114879         1.030963
 H         4.472405         2.286856        -0.534410
 H         1.549943         1.241696        -2.053738
 H         3.282217        -0.768410        -1.215885
