19
Iteration:  3103charge 0 multiplicity 1
 C         0.158934        -0.411027        -0.551971
 C         1.427427         0.241044        -0.253461
 C         1.858179         0.565091         1.170494
 C         3.301221         0.769583         0.675897
 O         4.261599         0.263830         1.524208
 C         3.580223         2.256876         0.184048
 O         2.454870         2.538247        -0.608155
 C         2.027189         1.273061        -1.166074
 C         2.913132         0.074321        -0.713138
 H        -0.040265        -1.340038         0.093005
 H        -0.586104         0.348563        -0.449214
 H        -0.042293        -0.721920        -1.527895
 H         1.387403         1.375542         1.715812
 H         1.747021        -0.280071         1.816504
 H         5.032369         0.825445         1.423253
 H         3.686308         2.945546         1.009207
 H         4.564915         2.291088        -0.279669
 H         1.637667         1.173120        -2.158082
 H         3.327149        -0.598899        -1.506435
