19
Iteration:  4936
 C         0.281756        -0.617431        -0.711672
 C         1.319231         0.309957        -0.095660
 C         1.839814         0.563252         1.265097
 C         3.233877         0.871408         0.755775
 O         4.294832         0.168531         1.352880
 C         3.480032         2.309701         0.377867
 O         2.715222         2.553049        -0.818668
 C         2.035899         1.334325        -1.156166
 C         2.780309         0.214442        -0.635033
 H         0.447967        -1.767097        -0.384850
 H        -0.735006        -0.272932        -0.636419
 H         0.445248        -0.616251        -1.770826
 H         1.392813         1.498104         1.716926
 H         1.863883        -0.339575         1.857961
 H         3.909506        -0.562231         1.936381
 H         2.910691         2.864587         1.159005
 H         4.405960         2.859750         0.230457
 H         1.527472         1.521193        -2.115081
 H         3.405298        -0.471687        -1.210803
