19
Iteration:  3766charge 0 multiplicity 1
 C         0.293664        -0.570898        -0.725057
 C         1.281438         0.354915        -0.207258
 C         1.753200         0.596407         1.276542
 C         3.270905         0.832753         0.783333
 O         4.387777         0.199333         1.401490
 C         3.480900         2.454592         0.353166
 O         2.650418         2.520788        -0.782493
 C         2.009449         1.249675        -1.166120
 C         2.772712         0.144943        -0.574657
 H         0.419973        -1.594764        -0.403796
 H        -0.855500        -0.369743        -0.539577
 H         0.501420        -0.669453        -1.833968
 H         1.548376         1.546176         1.848101
 H         1.743951        -0.277532         1.970268
 H         4.295889        -0.739966         1.173029
 H         3.199045         2.941834         1.268330
 H         4.551183         2.538692         0.022380
 H         1.787017         1.114377        -2.258853
 H         3.230502        -0.666968        -1.090923
