19
Iteration:  4699
 C         0.194002        -0.368770        -0.735685
 C         1.427426         0.269248        -0.292888
 C         1.827411         0.555575         1.233391
 C         3.233838         0.771825         0.756947
 O         4.439699         0.412947         1.514211
 C         3.536683         2.176730         0.344537
 O         2.415186         2.475729        -0.569173
 C         2.116276         1.266641        -1.223959
 C         2.801213         0.093878        -0.766168
 H         0.030433        -1.278631        -0.192150
 H        -0.739670         0.334089        -0.631411
 H         0.179613        -0.683358        -1.834541
 H         1.434918         1.411600         1.749244
 H         1.697350        -0.434621         1.773362
 H         4.222836        -0.509521         1.774344
 H         3.695929         2.876608         1.146170
 H         4.487711         2.171183        -0.161209
 H         1.564289         1.353345        -2.201459
 H         3.486241        -0.551385        -1.393020
