19
Iteration:  2389charge 0 multiplicity 1
 C         0.151872        -0.416461        -0.779776
 C         1.341849         0.235045        -0.127078
 C         1.886715         0.661489         1.290676
 C         3.383460         0.841824         0.644783
 O         4.414065         0.314609         1.371882
 C         3.634065         2.305376         0.173352
 O         2.352000         2.497074        -0.583090
 C         1.998541         1.184661        -1.133232
 C         2.846363         0.016687        -0.537848
 H        -0.025437        -1.448440        -0.520010
 H        -0.758781         0.127956        -0.491013
 H         0.277460        -0.200646        -1.852072
 H         1.489540         1.528009         1.758348
 H         1.965950        -0.226436         1.919814
 H         4.213185        -0.522514         1.754254
 H         3.611247         3.008859         1.053522
 H         4.583913         2.474082        -0.499765
 H         1.547380         1.307283        -2.088463
 H         3.301776        -0.893313        -1.083509
