19
Iteration:  4630
 C         0.249675        -0.577755        -0.548415
 C         1.365362         0.346162        -0.316698
 C         1.678852         0.596172         1.165344
 C         3.221868         0.736052         0.736919
 O         4.373324         0.224082         1.340779
 C         3.458536         2.224407         0.491026
 O         2.567462         2.653848        -0.782695
 C         2.161459         1.340210        -1.195930
 C         2.879135         0.125650        -0.632632
 H         0.596044        -1.515016         0.041723
 H        -0.668900        -0.035412        -0.132555
 H        -0.014272        -0.810997        -1.551373
 H         1.181071         1.525694         1.548691
 H         1.510722        -0.316854         1.826943
 H         4.310473        -0.674599         1.622430
 H         3.247771         2.959053         1.279697
 H         4.551144         2.412295         0.330768
 H         1.820368         1.435266        -2.202571
 H         3.614987        -0.426616        -1.161230
