19
Iteration:  3017
 C         0.199308        -0.518158        -0.661740
 C         1.355958         0.363581        -0.152953
 C         1.834069         0.676688         1.266930
 C         3.285347         0.786898         0.686932
 O         4.401096         0.160061         1.400619
 C         3.561879         2.295632         0.225024
 O         2.475576         2.546225        -0.772546
 C         2.067319         1.285167        -1.123576
 C         2.794720         0.094070        -0.563480
 H         0.495372        -1.595394        -0.430411
 H        -0.800680        -0.225992        -0.275484
 H         0.181543        -0.541533        -1.740186
 H         1.369471         1.573208         1.631053
 H         1.860916        -0.228027         1.926576
 H         4.058258        -0.196239         2.236536
 H         3.357284         3.122226         1.000142
 H         4.554981         2.472620        -0.277632
 H         1.642089         1.204652        -2.139733
 H         3.450354        -0.607740        -1.171464
