19
Iteration:  4318charge 0 multiplicity 1
 C         0.221107        -0.438733        -0.694670
 C         1.436236         0.218405        -0.246926
 C         1.846333         0.499019         1.259503
 C         3.265316         0.816099         0.692357
 O         4.384167         0.279794         1.436439
 C         3.459366         2.263655         0.319893
 O         2.441811         2.589246        -0.624769
 C         2.113520         1.316952        -1.177767
 C         2.864047         0.150673        -0.708501
 H        -0.106758        -1.407029        -0.175938
 H        -0.647477         0.225609        -0.702726
 H         0.505353        -0.761671        -1.742976
 H         1.295001         1.432170         1.625949
 H         1.781986        -0.319491         1.997160
 H         4.044579        -0.585164         1.822693
 H         3.438526         2.869024         1.211948
 H         4.466907         2.268118        -0.134401
 H         1.610449         1.304979        -2.159332
 H         3.306810        -0.751751        -1.117862
