19
Iteration:   448charge 0 multiplicity 1
 C         0.063364        -0.290543        -0.179858
 C         1.313745         0.444816        -0.070930
 C         1.768797         0.812034         1.342293
 C         3.260737         0.734926         0.634044
 O         4.401163         0.264659         1.402123
 C         3.592134         2.191012         0.061155
 O         2.812645         2.404668        -1.081509
 C         2.032902         1.154424        -1.232207
 C         2.701977        -0.004882        -0.639136
 H         0.140559        -1.137630         0.491699
 H        -0.763507         0.157001         0.232200
 H        -0.028990        -0.812753        -1.114623
 H         1.375381         1.807441         1.640771
 H         1.610798        -0.017861         2.063232
 H         4.032385        -0.300492         2.135862
 H         3.334730         2.940501         0.791098
 H         4.665052         2.026046        -0.218746
 H         1.641973         1.140810        -2.173702
 H         3.158432        -0.928650        -1.046660
