19
Iteration:   320charge 0 multiplicity 1
 C         0.124992        -0.295032        -0.103980
 C         1.363950         0.440853        -0.048608
 C         1.804948         0.896085         1.316285
 C         3.214707         0.835695         0.656657
 O         4.259060         0.165235         1.280012
 C         3.636413         2.230203         0.056527
 O         2.759079         2.333008        -1.065285
 C         2.088780         1.104608        -1.232643
 C         2.743240        -0.027887        -0.567181
 H         0.135145        -1.217131         0.503045
 H        -0.706320         0.441597         0.195044
 H        -0.179209        -0.478452        -1.167863
 H         1.349471         1.918741         1.517078
 H         1.670822         0.332656         2.248117
 H         3.855320        -0.557580         1.762172
 H         3.526595         3.037876         0.816260
 H         4.752260         2.223783        -0.221477
 H         1.768757         1.153559        -2.200427
 H         3.199828        -0.965846        -0.896843
