19
Iteration:  2672
 C         0.072149        -0.433767        -0.599146
 C         1.459927         0.182113        -0.187285
 C         1.905269         0.644655         1.174385
 C         3.333613         0.788529         0.657371
 O         4.294397         0.377535         1.511256
 C         3.613939         2.220987         0.195477
 O         2.456607         2.535321        -0.614372
 C         2.021331         1.182366        -1.201916
 C         2.857882         0.122770        -0.683934
 H        -0.023860        -1.457643        -0.184041
 H        -0.510234         0.135640        -0.024372
 H        -0.255423        -0.319901        -1.650289
 H         1.622029         1.629898         1.659281
 H         2.048526        -0.139561         1.931393
 H         4.122893        -0.553474         1.523633
 H         3.601065         2.887330         1.004726
 H         4.507985         2.200420        -0.401783
 H         1.690751         1.236377        -2.241735
 H         3.388393        -0.628731        -1.285142
