19
Iteration:   206charge 0 multiplicity 1
 C        -0.056535        -0.221164        -0.256960
 C         1.267564         0.388407        -0.061319
 C         1.895429         1.009201         1.255351
 C         3.340405         0.789860         0.655967
 O         4.429307         0.248724         1.332927
 C         3.706149         2.151981         0.059822
 O         2.652523         2.301967        -0.971674
 C         2.053070         1.032027        -1.213911
 C         2.712652        -0.056724        -0.526641
 H        -0.294102        -0.899765         0.642683
 H        -0.861718         0.555908        -0.319861
 H        -0.107215        -0.837548        -1.196596
 H         1.679197         2.021856         1.595099
 H         1.542413         0.432924         2.108976
 H         4.192737        -0.324664         2.056031
 H         3.513578         2.926525         0.807613
 H         4.721231         2.298189        -0.403050
 H         1.589527         0.998824        -2.239105
 H         3.080694        -1.031962        -0.859402
