19
Iteration:   221
 C        -0.197003        -0.270269        -0.318046
 C         1.287648         0.428099        -0.086116
 C         1.909035         0.900509         1.228171
 C         3.394289         0.785128         0.682267
 O         4.560128         0.214480         1.485057
 C         3.682435         2.077642        -0.108882
 O         2.622017         2.384602        -0.970165
 C         1.969931         1.146907        -1.192903
 C         2.719836        -0.002707        -0.425256
 H        -0.464979        -1.002418         0.416750
 H        -0.982273         0.511963        -0.410136
 H        -0.201850        -0.809644        -1.264834
 H         1.546562         1.940360         1.518838
 H         1.900326         0.085862         1.961238
 H         4.168153         0.178733         2.373714
 H         3.918804         2.957882         0.508970
 H         4.618106         1.840733        -0.684043
 H         1.714987         0.942730        -2.228033
 H         3.064126        -0.937040        -0.853120
