19
Iteration:  2456charge 0 multiplicity 1
 C         0.185506        -0.690105        -0.366994
 C         1.362335         0.319112        -0.286667
 C         1.857168         0.622390         1.178811
 C         3.329892         0.787404         0.666050
 O         4.321103         0.173889         1.380468
 C         3.529523         2.382842         0.416439
 O         2.611534         2.582841        -0.758941
 C         2.026899         1.407112        -1.243782
 C         2.786469         0.150847        -0.755413
 H         0.331019        -1.374246         0.376749
 H        -0.738332        -0.157765        -0.165897
 H         0.138514        -1.101582        -1.318913
 H         1.444114         1.485185         1.659673
 H         1.693351        -0.288743         1.757512
 H         3.917595        -0.730258         1.545002
 H         3.112451         2.937875         1.249043
 H         4.602356         2.677816         0.285968
 H         1.699620         1.301349        -2.308991
 H         3.328513        -0.521599        -1.398310
