19
Iteration:    74charge 0 multiplicity 1
 C        -0.100430        -0.189452        -0.220739
 C         1.282615         0.432990        -0.001944
 C         1.959362         0.967109         1.287630
 C         3.387628         0.848643         0.634133
 O         4.349731         0.223542         1.430004
 C         3.701070         2.202434        -0.066675
 O         2.630055         2.297887        -1.013056
 C         2.111497         0.995895        -1.249812
 C         2.696732        -0.084753        -0.470925
 H        -0.435005        -0.945757         0.557647
 H        -0.921115         0.527699        -0.115076
 H        -0.091008        -0.613929        -1.254457
 H         1.620004         1.980575         1.681155
 H         1.936474         0.201883         2.103450
 H         4.121839        -0.718615         1.372023
 H         3.599343         3.041601         0.631271
 H         4.691046         2.213581        -0.618613
 H         1.703976         1.021937        -2.176500
 H         3.023736        -1.048864        -0.864951
