19
Iteration:   807charge 0 multiplicity 1
 C        -0.088086        -0.263426        -0.488140
 C         1.275610         0.319886        -0.191170
 C         1.937546         0.731624         1.194268
 C         3.405882         0.800245         0.705997
 O         4.406092         0.247118         1.619718
 C         3.661031         2.143875        -0.027367
 O         2.474784         2.433826        -0.776223
 C         2.015314         1.149196        -1.155025
 C         2.842897        -0.004219        -0.602797
 H        -0.230272        -1.004849         0.304017
 H        -0.704264         0.574769        -0.353524
 H        -0.136998        -0.775516        -1.418554
 H         1.473649         1.640340         1.569535
 H         1.871824        -0.174166         1.798889
 H         4.886584         1.146754         1.707880
 H         3.869024         2.936812         0.702601
 H         4.556782         2.089012        -0.674936
 H         1.766860         0.953381        -2.213271
 H         3.326500        -0.735053        -1.206517
