19
Iteration:  4572charge 0 multiplicity 1
 C         0.263882        -0.498484        -0.753165
 C         1.381208         0.208447        -0.228023
 C         1.761127         0.527187         1.188438
 C         3.328624         0.730407         0.700385
 O         4.298038         0.274265         1.540646
 C         3.598459         2.271228         0.089002
 O         2.426691         2.600048        -0.603167
 C         2.070999         1.299522        -1.004071
 C         2.898341         0.229878        -0.626290
 H        -0.023524        -1.612867        -0.553233
 H        -0.522761        -0.037697        -0.225710
 H         0.215060        -0.295307        -1.866609
 H         1.273020         1.476556         1.635278
 H         1.672830        -0.334762         1.821610
 H         4.011233        -0.589872         1.941916
 H         3.842265         3.121511         0.775659
 H         4.386028         1.938996        -0.661452
 H         1.716082         1.588089        -2.038358
 H         3.579867        -0.373777        -1.276763
