19
Iteration:  3019charge 0 multiplicity 1
 C         0.200598        -0.522606        -0.663335
 C         1.369529         0.362015        -0.151279
 C         1.836812         0.680534         1.294376
 C         3.277233         0.822365         0.674576
 O         4.387680         0.151840         1.378971
 C         3.553596         2.311837         0.244961
 O         2.492747         2.547911        -0.774416
 C         2.060674         1.268276        -1.121284
 C         2.799590         0.083863        -0.578822
 H         0.459764        -1.560138        -0.393899
 H        -0.848208        -0.280120        -0.233208
 H         0.205020        -0.539089        -1.797404
 H         1.351256         1.608614         1.662122
 H         1.819129        -0.272029         1.956398
 H         4.065854        -0.213942         2.255562
 H         3.333085         3.122054         0.994725
 H         4.574659         2.413991        -0.249432
 H         1.720416         1.144401        -2.151876
 H         3.435789        -0.609210        -1.173095
