19
Iteration:    70
 C        -0.053957        -0.173079        -0.192419
 C         1.311992         0.452584         0.006371
 C         1.936012         0.943822         1.299902
 C         3.366329         0.817554         0.624531
 O         4.312707         0.236598         1.419937
 C         3.683451         2.193800        -0.047775
 O         2.648479         2.289369        -1.048131
 C         2.086841         1.015485        -1.230430
 C         2.716149        -0.073107        -0.490522
 H        -0.309424        -0.929266         0.547514
 H        -0.892736         0.566608        -0.190226
 H        -0.043623        -0.663550        -1.166657
 H         1.675425         1.901301         1.633678
 H         1.846527         0.282181         2.150033
 H         4.253455        -0.731341         1.312210
 H         3.642388         3.029732         0.700753
 H         4.654456         2.152193        -0.522848
 H         1.550790         0.982798        -2.266546
 H         3.067871        -1.052551        -0.856413
