19
Iteration:  2567
 C         0.077324        -0.440310        -0.491540
 C         1.398290         0.295199        -0.275306
 C         1.910022         0.570009         1.189588
 C         3.304741         0.817978         0.603196
 O         4.298813         0.290619         1.475612
 C         3.550866         2.270789         0.217367
 O         2.416895         2.534034        -0.578498
 C         2.058852         1.208009        -1.200401
 C         2.996414         0.116762        -0.727528
 H         0.115644        -1.284250         0.163870
 H        -0.849893         0.201381        -0.220380
 H        -0.159187        -0.781019        -1.478338
 H         1.597830         1.536187         1.607429
 H         1.952695        -0.369495         1.789287
 H         4.127733        -0.576533         1.812345
 H         3.641863         3.114835         0.945281
 H         4.581166         2.356491        -0.313377
 H         1.781869         1.285131        -2.234121
 H         3.576616        -0.650698        -1.272406
