19
Iteration:   356
 C        -0.065216        -0.340279        -0.290060
 C         1.187777         0.464123        -0.083704
 C         1.901283         0.807192         1.217321
 C         3.379390         0.771805         0.577485
 O         4.377658         0.239167         1.529213
 C         3.820930         2.143729        -0.032471
 O         2.713899         2.408339        -0.973273
 C         1.955131         1.191389        -1.148414
 C         2.636595        -0.072175        -0.514349
 H        -0.225066        -1.108920         0.438209
 H        -0.930707         0.263746        -0.133613
 H        -0.020871        -0.828612        -1.242711
 H         1.689032         1.773306         1.725394
 H         1.908669        -0.112362         1.864021
 H         4.566918         0.967265         2.119782
 H         3.767269         3.068097         0.608219
 H         4.684116         2.145237        -0.724167
 H         1.737551         0.934190        -2.266075
 H         2.950529        -0.975485        -1.064620
