19
Iteration:  2957charge 0 multiplicity 1
 C         0.061387        -0.471518        -0.511095
 C         1.403824         0.208793        -0.327999
 C         1.858186         0.606469         1.128245
 C         3.319607         0.794521         0.696282
 O         4.341795         0.315021         1.564871
 C         3.645361         2.238637         0.283635
 O         2.462432         2.600228        -0.664582
 C         1.983570         1.290975        -1.211755
 C         2.929483         0.085409        -0.728692
 H        -0.084771        -1.192726         0.277393
 H        -0.746977         0.181033        -0.200374
 H        -0.182947        -0.819831        -1.553630
 H         1.161824         1.258983         1.679331
 H         1.969093        -0.181472         1.814483
 H         4.446711        -0.658379         1.368694
 H         3.596953         3.018217         0.985163
 H         4.609902         2.198154        -0.242871
 H         1.821937         1.242565        -2.287153
 H         3.502641        -0.637931        -1.249665
