19
Iteration:   856charge 0 multiplicity 1
 C         0.041698        -0.413091        -0.382805
 C         1.349145         0.324089        -0.088010
 C         1.799146         0.834893         1.273395
 C         3.320834         0.775674         0.661310
 O         4.377000         0.226563         1.379042
 C         3.591377         2.266906         0.168549
 O         2.633441         2.430573        -0.937235
 C         2.055513         1.192201        -1.207058
 C         2.829332         0.044593        -0.546887
 H        -0.018029        -1.446905        -0.026573
 H        -0.738758         0.253887         0.044983
 H        -0.010513        -0.461220        -1.497012
 H         1.399426         1.789363         1.626543
 H         1.570341        -0.009604         1.925442
 H         4.071258        -0.618319         1.673915
 H         3.452594         3.107730         0.872933
 H         4.663528         2.293139        -0.088673
 H         1.555303         1.113621        -2.209312
 H         3.430371        -0.756892        -1.005591
