19
Iteration:  4619charge 0 multiplicity 1
 C         0.191228        -0.571393        -0.553470
 C         1.358482         0.370357        -0.394166
 C         1.783347         0.687641         1.132086
 C         3.267792         0.730413         0.692656
 O         4.395980         0.230824         1.448218
 C         3.443914         2.283290         0.402368
 O         2.561532         2.586551        -0.635496
 C         2.121331         1.320166        -1.190747
 C         2.869731         0.102724        -0.669886
 H         0.520034        -1.596112        -0.138556
 H        -0.763355        -0.435378         0.029170
 H         0.031266        -0.802804        -1.582765
 H         1.201637         1.569925         1.474246
 H         1.494999        -0.185290         1.789144
 H         4.150645        -0.719999         1.636828
 H         3.097517         2.740939         1.337200
 H         4.494902         2.476469         0.081827
 H         2.097557         1.324531        -2.260195
 H         3.309239        -0.434767        -1.460635
