19
Iteration:  4856
 C         0.051528        -0.338701        -0.688412
 C         1.441070         0.163267        -0.275953
 C         1.872421         0.562213         1.071824
 C         3.404325         0.775249         0.645697
 O         4.380454         0.244922         1.668006
 C         3.490078         2.306024         0.268840
 O         2.350581         2.503494        -0.607872
 C         2.057218         1.260522        -1.149811
 C         2.997042         0.183872        -0.717130
 H        -0.207195        -1.258598        -0.055405
 H        -0.699751         0.376527        -0.303471
 H         0.086092        -0.618108        -1.779102
 H         1.437240         1.514469         1.599769
 H         1.733172        -0.317825         1.716029
 H         4.035671        -0.703246         1.826818
 H         3.557977         3.129185         1.042806
 H         4.382523         2.444964        -0.366090
 H         2.048564         1.147611        -2.237689
 H         3.544126        -0.554722        -1.321336
