19
Iteration:  4304charge 0 multiplicity 1
 C         0.148538        -0.431675        -0.882837
 C         1.383712         0.289961        -0.171432
 C         1.926636         0.595366         1.240066
 C         3.361070         0.788144         0.680083
 O         4.369642         0.301147         1.492113
 C         3.542529         2.314041         0.296359
 O         2.402754         2.470996        -0.579248
 C         1.975597         1.205416        -1.107460
 C         2.920466         0.125988        -0.691112
 H        -0.008183        -1.378696        -0.398906
 H        -0.798649         0.238336        -0.687795
 H         0.189700        -0.593297        -1.956825
 H         1.565115         1.297232         1.928426
 H         1.947874        -0.433537         1.734694
 H         4.065434        -0.437202         2.013862
 H         3.415085         3.091782         1.063873
 H         4.505098         2.531979        -0.246192
 H         1.594223         1.332385        -2.085532
 H         3.443151        -0.565020        -1.391476
