19
Iteration:  1313
 C         0.150479        -0.618369        -0.425062
 C         1.300283         0.392785        -0.189557
 C         1.819789         0.623699         1.233153
 C         3.221126         0.816366         0.690177
 O         4.225617         0.141467         1.379859
 C         3.518022         2.334353         0.376187
 O         2.697432         2.530933        -0.831284
 C         2.151608         1.306781        -1.299752
 C         2.813767         0.183436        -0.638935
 H         0.331278        -1.372347         0.380909
 H        -0.826351        -0.153940        -0.434394
 H         0.122088        -1.234311        -1.391060
 H         1.483727         1.311549         1.963179
 H         1.898631        -0.222229         1.875623
 H         5.037316         0.362650         0.924523
 H         3.204360         3.023064         1.162459
 H         4.588226         2.494115         0.107821
 H         1.675467         1.271265        -2.272533
 H         3.390639        -0.621587        -1.118328
