19
Iteration:  3252
 C         0.127228        -0.503595        -0.722293
 C         1.410260         0.223461        -0.217731
 C         1.858187         0.693621         1.192302
 C         3.288045         0.833818         0.681759
 O         4.406693         0.294502         1.460662
 C         3.608366         2.255472         0.279147
 O         2.383113         2.510152        -0.556592
 C         2.048008         1.296650        -1.177452
 C         2.835230         0.059804        -0.579203
 H         0.048180        -1.511708        -0.471563
 H        -0.768490         0.005130        -0.261011
 H         0.188412        -0.552174        -1.844563
 H         1.496167         1.651020         1.520526
 H         1.719116        -0.168130         1.817890
 H         4.639576        -0.604202         1.053861
 H         3.520714         2.940472         1.140951
 H         4.449259         2.211398        -0.372538
 H         1.864759         1.390162        -2.234826
 H         3.476516        -0.460302        -1.341554
