19
Iteration:  3013
 C         0.208490        -0.518384        -0.648537
 C         1.329103         0.352939        -0.163263
 C         1.833944         0.668284         1.218381
 C         3.308149         0.740543         0.712994
 O         4.417535         0.179648         1.430344
 C         3.568297         2.276050         0.196272
 O         2.458121         2.546078        -0.761738
 C         2.064446         1.299705        -1.137629
 C         2.801329         0.112697        -0.555168
 H         0.466560        -1.563377        -0.456279
 H        -0.739439        -0.157124        -0.323094
 H         0.137567        -0.501547        -1.744252
 H         1.382172         1.567663         1.687042
 H         1.863298        -0.146985         1.896872
 H         4.027127        -0.180478         2.246305
 H         3.448711         3.009993         0.969748
 H         4.495179         2.526467        -0.296475
 H         1.548982         1.313225        -2.099960
 H         3.374958        -0.578460        -1.119403
