19
Iteration:  1954charge 0 multiplicity 1
 C         0.077395        -0.373694        -0.565122
 C         1.410413         0.196855        -0.224937
 C         1.832858         0.660581         1.200827
 C         3.349084         0.833709         0.688340
 O         4.371536         0.280453         1.428205
 C         3.542883         2.330148         0.243312
 O         2.386699         2.472581        -0.639196
 C         2.138297         1.185598        -1.164291
 C         2.967210         0.087771        -0.691161
 H        -0.093040        -1.515070        -0.338892
 H        -0.633693         0.132189         0.225363
 H        -0.311335        -0.331765        -1.560508
 H         1.199685         1.525774         1.510397
 H         1.855239        -0.067555         1.990378
 H         4.336902        -0.729153         1.296022
 H         3.559537         3.116203         1.089280
 H         4.409516         2.367282        -0.481029
 H         1.637418         1.254939        -2.115666
 H         3.473321        -0.767450        -1.144475
