19
Iteration:   430charge 0 multiplicity 1
 C        -0.017049        -0.300513        -0.244672
 C         1.282134         0.392446        -0.090535
 C         2.029027         0.902526         1.243391
 C         3.315548         0.816466         0.630171
 O         4.300352         0.243227         1.435150
 C         3.660683         2.217337         0.121840
 O         2.658422         2.336838        -1.032805
 C         2.053703         1.107845        -1.241721
 C         2.749631         0.000642        -0.496668
 H        -0.236437        -1.161221         0.455140
 H        -0.870885         0.485468         0.012882
 H        -0.150837        -0.768060        -1.279126
 H         1.680970         1.825728         1.706561
 H         1.851056        -0.042695         1.748746
 H         4.177569        -0.729584         1.521916
 H         3.415168         2.983796         0.881866
 H         4.603889         2.442369        -0.333340
 H         1.669960         1.082616        -2.313315
 H         3.022894        -0.958702        -0.974350
