19
Iteration:  4753
 C         0.247771        -0.494321        -0.580184
 C         1.417969         0.387941        -0.236619
 C         1.840275         0.608738         1.166720
 C         3.280349         0.752635         0.664167
 O         4.267057         0.221629         1.529023
 C         3.473404         2.232482         0.353758
 O         2.479260         2.517725        -0.658996
 C         2.040611         1.320604        -1.202739
 C         2.980776         0.174939        -0.794305
 H         0.379659        -1.500011        -0.253649
 H        -0.755690         0.018249        -0.299886
 H         0.152511        -0.472387        -1.709126
 H         1.425590         1.461741         1.686982
 H         1.838330        -0.210211         1.968527
 H         4.090440        -0.716321         1.538334
 H         3.247604         2.877834         1.199493
 H         4.493155         2.438164        -0.092017
 H         1.688246         1.302650        -2.283046
 H         3.503585        -0.736576        -1.186480
