19
Iteration:  1998charge 0 multiplicity 1
 C         0.106222        -0.518580        -0.677273
 C         1.329922         0.316488        -0.166648
 C         1.877182         0.544427         1.281890
 C         3.329943         0.762035         0.681120
 O         4.501370         0.409674         1.492567
 C         3.577057         2.167939         0.166551
 O         2.522616         2.592080        -0.664696
 C         1.958926         1.309633        -1.126995
 C         2.819770         0.092803        -0.732637
 H        -0.151954        -1.545043        -0.205938
 H        -0.885388         0.004902        -0.450098
 H         0.094957        -0.766337        -1.723085
 H         1.665305         1.473637         1.844172
 H         1.566076        -0.283441         1.863621
 H         4.273121        -0.403410         2.071601
 H         3.469969         2.844266         1.016959
 H         4.530081         2.020243        -0.324734
 H         1.404194         1.264879        -2.064007
 H         3.051426        -0.638321        -1.448084
