19
Iteration:   565charge 0 multiplicity 1
 C        -0.020491        -0.378521        -0.286226
 C         1.292194         0.443167        -0.148229
 C         1.882699         0.800886         1.223577
 C         3.309323         0.741188         0.658418
 O         4.410463         0.322413         1.447694
 C         3.689409         2.115249         0.110336
 O         2.684144         2.439826        -0.978092
 C         2.014797         1.165194        -1.245409
 C         2.693359         0.008344        -0.569080
 H        -0.256904        -0.847752         0.717310
 H        -0.832682         0.392615        -0.441484
 H         0.106707        -1.089292        -1.109260
 H         1.536425         1.657512         1.802207
 H         1.697237        -0.130436         1.798857
 H         4.262943         0.096875         2.411777
 H         3.629993         2.915370         0.869776
 H         4.626074         1.909033        -0.238643
 H         1.642608         1.098635        -2.212220
 H         3.125638        -0.859874        -1.112881
