19
Iteration:  2923charge 0 multiplicity 1
 C         0.230634        -0.427238        -0.571347
 C         1.363134         0.375850        -0.177833
 C         1.828852         0.688987         1.300013
 C         3.272532         0.803168         0.707877
 O         4.328875         0.196914         1.315407
 C         3.437593         2.298859         0.402821
 O         2.527908         2.545914        -0.850408
 C         2.051926         1.192462        -1.156966
 C         2.904791         0.059027        -0.615645
 H         0.204751        -1.330938        -0.003605
 H        -0.674713         0.205826        -0.596134
 H         0.373275        -0.921092        -1.591277
 H         1.410697         1.585902         1.803796
 H         1.955746        -0.197228         1.837321
 H         4.582577        -0.747718         1.155958
 H         3.104445         2.841337         1.237922
 H         4.475697         2.571392         0.197632
 H         1.837074         1.203738        -2.233851
 H         3.324634        -0.899704        -0.983464
