19
Iteration:  2221
 C         0.130833        -0.576673        -0.551482
 C         1.372433         0.258568        -0.193322
 C         1.895594         0.593042         1.257223
 C         3.291350         0.830831         0.681066
 O         4.353625         0.294429         1.450583
 C         3.596644         2.238746         0.271729
 O         2.526062         2.560649        -0.701139
 C         2.000967         1.314780        -1.169887
 C         2.801798         0.159585        -0.723059
 H        -0.016430        -1.442825         0.094646
 H        -0.793073         0.016435        -0.498961
 H         0.072587        -0.967914        -1.663813
 H         1.501237         1.521067         1.668039
 H         1.879281        -0.337865         1.832990
 H         4.480150        -0.649620         1.312471
 H         3.593620         3.092680         1.020426
 H         4.648935         2.342833        -0.161596
 H         1.486532         1.460251        -2.128713
 H         3.375926        -0.452923        -1.393034
