19
Iteration:  1746charge 0 multiplicity 1
 C         0.127727        -0.505872        -0.594117
 C         1.342082         0.375970        -0.136661
 C         1.784588         0.619903         1.377996
 C         3.243284         0.796467         0.709687
 O         4.465495         0.181096         1.277121
 C         3.403022         2.309234         0.367887
 O         2.691332         2.516717        -0.912469
 C         2.065598         1.235249        -1.180926
 C         2.828115         0.136043        -0.573302
 H         0.341485        -1.499798        -0.278282
 H        -0.916224        -0.171088        -0.409686
 H         0.313685        -0.590756        -1.629125
 H         1.425604         1.600546         1.798658
 H         1.736133        -0.326453         1.939296
 H         4.249344        -0.059412         2.164521
 H         2.869573         2.989530         1.119949
 H         4.364812         2.726628         0.126015
 H         1.739694         1.283343        -2.209269
 H         3.223160        -0.639050        -1.177802
