19
Iteration:  1340
 C         0.166704        -0.569165        -0.528211
 C         1.324864         0.327843        -0.201011
 C         1.739862         0.541385         1.212088
 C         3.234326         0.724912         0.672073
 O         4.398957         0.317068         1.485977
 C         3.555120         2.284481         0.286876
 O         2.713319         2.578436        -0.833833
 C         1.997953         1.377780        -1.173572
 C         2.770332         0.137040        -0.646162
 H         0.135922        -1.284779         0.321111
 H        -0.849515        -0.045625        -0.522795
 H         0.240563        -1.227131        -1.377569
 H         1.433315         1.441635         1.875100
 H         1.845041        -0.401984         1.851233
 H         4.514728        -0.632640         1.400270
 H         3.395519         3.045817         1.100999
 H         4.637078         2.332060        -0.110079
 H         1.588711         1.298443        -2.190195
 H         3.175694        -0.649671        -1.314710
