19
Iteration:  2235
 C         0.100544        -0.531213        -0.714802
 C         1.352117         0.268912        -0.163975
 C         1.824503         0.646003         1.266984
 C         3.342499         0.759932         0.689320
 O         4.480556         0.335032         1.483933
 C         3.595890         2.186588         0.122269
 O         2.479518         2.554622        -0.644740
 C         1.916641         1.333496        -1.060543
 C         2.875746         0.153072        -0.685137
 H         0.204361        -1.483354        -0.176376
 H        -0.803035         0.018454        -0.445573
 H         0.341942        -0.900669        -1.804001
 H         1.336738         1.505500         1.764148
 H         1.598188        -0.024711         2.151773
 H         4.440174        -0.672247         1.468863
 H         3.675006         2.842817         1.014192
 H         4.449592         2.116460        -0.537021
 H         1.412812         1.292909        -2.086644
 H         3.270261        -0.636961        -1.283606
