19
Iteration:  4805
 C         0.154102        -0.673022        -0.748215
 C         1.331792         0.321627        -0.265509
 C         1.693572         0.613702         1.219440
 C         3.247279         0.818101         0.801670
 O         4.423935         0.260438         1.331856
 C         3.577018         2.239445         0.388233
 O         2.668258         2.590316        -0.697826
 C         2.032169         1.370134        -1.183284
 C         2.811798         0.181364        -0.562173
 H         0.255341        -1.579201        -0.027075
 H        -0.768474        -0.215509        -0.472031
 H         0.205568        -1.008876        -1.744210
 H         1.223704         1.342086         1.874677
 H         1.566670        -0.285633         1.840372
 H         4.255146        -0.458548         1.970452
 H         3.296425         2.986229         1.130581
 H         4.621065         2.274044        -0.035277
 H         1.596797         1.204917        -2.210214
 H         3.485696        -0.234045        -1.340992
