19
Iteration:   857
 C         0.036124        -0.428414        -0.383156
 C         1.343580         0.331225        -0.089715
 C         1.805278         0.832261         1.275159
 C         3.319152         0.778762         0.666684
 O         4.382151         0.221978         1.378338
 C         3.590010         2.262021         0.169935
 O         2.640788         2.432329        -0.941223
 C         2.059243         1.193925        -1.211327
 C         2.826421         0.053482        -0.554799
 H        -0.022076        -1.463053        -0.002842
 H        -0.769584         0.255912         0.052539
 H        -0.011758        -0.451761        -1.486704
 H         1.396001         1.802366         1.665471
 H         1.537745        -0.013737         1.947100
 H         4.044695        -0.611379         1.716023
 H         3.439520         3.104423         0.878721
 H         4.663254         2.330051        -0.110561
 H         1.555837         1.116507        -2.228857
 H         3.429743        -0.735754        -0.971653
