19
Iteration:  4760
 C         0.310721        -0.457478        -0.614245
 C         1.389918         0.372637        -0.247799
 C         1.871446         0.613801         1.226861
 C         3.237579         0.799976         0.590162
 O         4.249634         0.220947         1.498096
 C         3.464353         2.194669         0.384556
 O         2.496176         2.529161        -0.719026
 C         2.082960         1.329721        -1.159397
 C         2.899569         0.147478        -0.739210
 H         0.564158        -1.478642        -0.127268
 H        -0.597740        -0.214862        -0.149095
 H         0.342980        -0.610375        -1.653113
 H         1.370309         1.481163         1.727858
 H         1.781861        -0.240045         1.910339
 H         4.079893        -0.764456         1.550386
 H         3.191829         2.720934         1.325248
 H         4.486280         2.365365        -0.032334
 H         1.663449         1.465331        -2.127786
 H         3.481711        -0.643913        -1.246993
