19
Iteration:  4357charge 0 multiplicity 1
 C         0.133817        -0.694414        -0.533905
 C         1.286612         0.325497        -0.266487
 C         1.803335         0.579215         1.065484
 C         3.307614         0.828871         0.730274
 O         4.340937         0.237894         1.417909
 C         3.470172         2.306996         0.515133
 O         2.618304         2.560537        -0.644058
 C         2.155395         1.379830        -1.305944
 C         2.864295         0.190485        -0.728030
 H         0.247077        -1.412862         0.188692
 H        -0.946545        -0.347086        -0.444272
 H         0.247744        -1.096288        -1.490936
 H         1.360577         1.389533         1.543281
 H         1.818901        -0.248685         1.811173
 H         4.275275        -0.680933         1.205348
 H         3.018623         2.984246         1.270591
 H         4.468082         2.690377         0.272707
 H         1.940958         1.726479        -2.282500
 H         3.350089        -0.686518        -1.238177
