19
Iteration:  3481
 C         0.275475        -0.534844        -0.497544
 C         1.492531         0.230605        -0.244891
 C         1.792045         0.530440         1.241248
 C         3.191410         0.873070         0.701636
 O         4.235847         0.080665         1.244937
 C         3.384844         2.375541         0.442937
 O         2.535610         2.548636        -0.715700
 C         2.153508         1.304842        -1.179533
 C         2.947284         0.240519        -0.745405
 H         0.117526        -1.311801         0.169064
 H        -0.460878         0.317824        -0.393529
 H         0.431156        -1.012407        -1.511914
 H         1.069652         1.271953         1.651988
 H         1.635729        -0.420484         1.840380
 H         4.622172         0.602957         2.026150
 H         3.136634         2.789837         1.395152
 H         4.502515         2.708844         0.132849
 H         1.722421         1.393363        -2.208405
 H         3.412431        -0.572760        -1.265735
