19
Iteration:  3065charge 0 multiplicity 1
 C         0.171769        -0.604445        -0.458618
 C         1.356299         0.364061        -0.258887
 C         1.753328         0.627716         1.226068
 C         3.262054         0.709458         0.717112
 O         4.342938         0.114906         1.357433
 C         3.452941         2.364985         0.360760
 O         2.701642         2.632906        -0.818734
 C         2.033126         1.243262        -1.197221
 C         2.865037         0.156436        -0.679929
 H         0.289943        -1.427403         0.232119
 H        -0.781917        -0.040187        -0.105747
 H         0.125987        -1.062096        -1.545893
 H         1.411548         1.606987         1.727042
 H         1.662960        -0.356552         1.803977
 H         4.694339         0.668257         2.109377
 H         3.067680         2.988801         1.199995
 H         4.510256         2.657316         0.022426
 H         1.817436         1.316463        -2.270865
 H         3.137512        -0.574343        -1.377451
