19
Iteration:  1179charge 0 multiplicity 1
 C         0.135444        -0.469565        -0.432350
 C         1.397566         0.331175        -0.169853
 C         1.784617         0.722906         1.245533
 C         3.247791         0.816461         0.732489
 O         4.357955         0.064036         1.244216
 C         3.418081         2.356409         0.338012
 O         2.632162         2.525719        -0.919424
 C         2.150317         1.235239        -1.191729
 C         2.846674         0.097927        -0.598840
 H         0.125245        -1.339610         0.298782
 H        -0.749031         0.275784        -0.290777
 H         0.098298        -0.996472        -1.426174
 H         1.371673         1.605653         1.701940
 H         1.657330        -0.187853         1.890552
 H         4.425976         0.121937         2.204455
 H         3.021720         2.986141         1.172441
 H         4.530167         2.601681         0.154984
 H         1.771503         1.147856        -2.211275
 H         3.523373        -0.658726        -0.854293
