19
Iteration:  3425
 C         0.275365        -0.513602        -0.737696
 C         1.418661         0.271042        -0.272841
 C         1.845191         0.606797         1.214120
 C         3.267534         0.785730         0.640490
 O         4.370457         0.328235         1.427550
 C         3.576877         2.191261         0.266209
 O         2.445083         2.549558        -0.495029
 C         1.967479         1.277048        -1.163793
 C         2.830516         0.119635        -0.684551
 H         0.427516        -1.491744        -0.330020
 H        -0.666439        -0.106329        -0.395386
 H         0.140918        -0.414626        -1.846477
 H         1.299039         1.448147         1.671190
 H         1.586164        -0.331649         1.785060
 H         4.199071         0.307989         2.357713
 H         3.852470         2.677776         1.142213
 H         4.553105         2.205926        -0.332136
 H         1.327470         1.507438        -2.017119
 H         3.431335        -0.616567        -1.160701
