19
Iteration:  1299
 C         0.238655        -0.507305        -0.446729
 C         1.410703         0.338011        -0.234281
 C         1.835789         0.711684         1.262146
 C         3.260167         0.815982         0.666748
 O         4.215625         0.064380         1.350273
 C         3.450230         2.312519         0.302059
 O         2.635776         2.518244        -0.811971
 C         2.034517         1.256334        -1.143874
 C         2.870151         0.145133        -0.672203
 H         0.227971        -1.347222         0.252196
 H        -0.708578        -0.012644        -0.138063
 H         0.281489        -0.898676        -1.433801
 H         1.376500         1.660979         1.571966
 H         1.632828        -0.267196         1.760721
 H         4.967012         0.686477         1.604175
 H         3.109735         2.977728         1.118284
 H         4.473284         2.556311         0.076575
 H         1.832579         1.321545        -2.188816
 H         3.358710        -0.790905        -1.114858
