19
Iteration:  3788charge 0 multiplicity 1
 C         0.176071        -0.620346        -0.779993
 C         1.388344         0.295452        -0.158852
 C         1.696549         0.691700         1.293990
 C         3.215667         0.830619         0.726950
 O         4.385962         0.303682         1.290188
 C         3.509375         2.312713         0.370434
 O         2.632469         2.529911        -0.736120
 C         2.132920         1.289314        -1.149690
 C         2.835144         0.138201        -0.514521
 H         0.131570        -1.615711        -0.363120
 H        -0.908547        -0.228379        -0.577632
 H         0.362459        -0.851760        -1.854717
 H         1.075473         1.368865         1.908805
 H         1.825904        -0.298237         1.786670
 H         4.279499        -0.656709         1.480578
 H         3.254446         2.916815         1.243585
 H         4.610866         2.226455         0.135318
 H         1.631677         1.270891        -2.144071
 H         3.378295        -0.624408        -1.006131
