19
Iteration:  2352charge 0 multiplicity 1
 C         0.122273        -0.488275        -0.482803
 C         1.394524         0.354308        -0.235120
 C         1.777194         0.522112         1.203604
 C         3.271065         0.713663         0.696268
 O         4.505349         0.322153         1.396851
 C         3.485185         2.310963         0.373974
 O         2.581535         2.547942        -0.823669
 C         2.040353         1.273759        -1.209651
 C         2.831131         0.143227        -0.676134
 H         0.067274        -1.458265        -0.045034
 H        -0.690794         0.114416        -0.145734
 H        -0.089481        -0.835231        -1.533748
 H         1.308432         1.282626         1.848003
 H         1.499105        -0.347752         1.788179
 H         4.490228        -0.646753         1.579997
 H         3.149812         2.836690         1.328718
 H         4.542587         2.601090         0.101211
 H         1.395460         1.380746        -2.126650
 H         3.267850        -0.713444        -1.080835
