19
Iteration:  3689charge 0 multiplicity 1
 C         0.134985        -0.471923        -0.652182
 C         1.413524         0.208631        -0.329421
 C         1.800140         0.648299         1.136979
 C         3.352022         0.743824         0.769325
 O         4.385498         0.339259         1.494152
 C         3.507434         2.223259         0.246180
 O         2.398878         2.572856        -0.527627
 C         2.098247         1.235666        -1.171864
 C         2.937933         0.100433        -0.750302
 H        -0.132835        -1.417986        -0.185431
 H        -0.633144         0.300453        -0.311929
 H         0.006386        -0.662885        -1.773245
 H         1.285463         1.519431         1.670962
 H         1.635475        -0.246862         1.822246
 H         4.128893        -0.312793         2.124582
 H         3.614805         2.991365         0.983529
 H         4.429063         2.222800        -0.346050
 H         1.891759         1.356800        -2.227435
 H         3.672788        -0.516263        -1.265109
