19
Iteration:  1592charge 0 multiplicity 1
 C         0.196403        -0.499377        -0.560214
 C         1.384172         0.349260        -0.217154
 C         1.820552         0.635415         1.223157
 C         3.256266         0.778397         0.698741
 O         4.318339         0.220010         1.437690
 C         3.439726         2.251805         0.440136
 O         2.632464         2.516116        -0.832464
 C         2.028479         1.298200        -1.220689
 C         2.843727         0.103823        -0.664952
 H         0.278185        -1.552276        -0.133048
 H        -0.774897        -0.005702        -0.071046
 H         0.027220        -0.522367        -1.634839
 H         1.336604         1.387307         1.876833
 H         1.802127        -0.194419         1.937362
 H         5.202063         0.211204         0.926929
 H         3.081825         3.117170         1.043675
 H         4.498015         2.459564         0.213828
 H         1.735146         1.205355        -2.307329
 H         3.347051        -0.810996        -0.991155
