19
Iteration:   159
 C        -0.127085        -0.331986        -0.117383
 C         1.174737         0.509973        -0.082320
 C         1.898443         0.879030         1.285499
 C         3.370978         0.847349         0.707104
 O         4.320200         0.078760         1.584862
 C         3.719853         2.273574        -0.022445
 O         2.784463         2.343399        -1.188664
 C         2.015108         1.107578        -1.284085
 C         2.727363         0.001982        -0.541800
 H        -0.030081        -1.131228         0.658067
 H        -0.973767         0.286867         0.180007
 H        -0.325381        -0.742098        -1.115919
 H         1.529953         1.661170         1.867737
 H         1.810364         0.059286         2.000441
 H         5.158814         0.054898         1.073253
 H         3.599141         3.211683         0.583202
 H         4.686903         2.258584        -0.470755
 H         1.793080         0.959117        -2.285124
 H         3.105232        -0.748385        -1.237642
