19
Iteration:  2512charge 0 multiplicity 1
 C         0.043327        -0.507315        -0.716353
 C         1.340480         0.268882        -0.158674
 C         1.900665         0.613820         1.253803
 C         3.306907         0.820075         0.648485
 O         4.462798         0.396474         1.396970
 C         3.547143         2.187023         0.268176
 O         2.521233         2.523843        -0.688823
 C         2.023603         1.252640        -1.087130
 C         2.819454         0.093856        -0.609081
 H        -0.055324        -1.533118        -0.594996
 H        -0.877515        -0.037394        -0.300535
 H         0.031441        -0.375869        -1.753250
 H         1.431628         1.390330         1.845481
 H         1.954106        -0.245444         1.934672
 H         4.512698        -0.475059         1.784270
 H         3.337620         2.855607         1.099424
 H         4.569168         2.305546        -0.192762
 H         1.599552         1.255094        -2.112349
 H         3.356512        -0.521898        -1.293214
