19
Iteration:  3329charge 0 multiplicity 1
 C         0.154340        -0.567699        -0.484905
 C         1.366359         0.277387        -0.295127
 C         1.811507         0.545055         1.099425
 C         3.292568         0.835942         0.652499
 O         4.308110         0.108263         1.405113
 C         3.422510         2.348349         0.417932
 O         2.594348         2.569080        -0.674445
 C         2.077495         1.296007        -1.217974
 C         2.883793         0.204699        -0.671517
 H         0.250025        -1.297032         0.281325
 H        -0.838683         0.012342        -0.254978
 H         0.134654        -1.043301        -1.522746
 H         1.341588         1.302565         1.708807
 H         1.958193        -0.375164         1.631934
 H         5.131032         0.604098         1.600341
 H         2.973683         3.097892         1.268273
 H         4.517653         2.668398         0.189304
 H         1.849949         1.329038        -2.280193
 H         3.514963        -0.335665        -1.384402
