19
Iteration:  4250charge 0 multiplicity 1
 C         0.238375        -0.489037        -0.599810
 C         1.397924         0.286852        -0.237430
 C         1.746668         0.551528         1.127371
 C         3.243688         0.779007         0.628293
 O         4.348915         0.335639         1.440453
 C         3.491359         2.169899         0.367238
 O         2.520486         2.553869        -0.594470
 C         2.101681         1.338441        -1.228423
 C         2.873678         0.204303        -0.677210
 H         0.412762        -1.533277        -0.307607
 H        -0.591197        -0.213014         0.152043
 H        -0.001858        -0.571466        -1.661785
 H         1.267208         1.358185         1.680402
 H         1.647491        -0.494883         1.607946
 H         4.281625        -0.609902         1.649592
 H         3.337035         2.809742         1.213008
 H         4.551603         2.143798         0.031849
 H         1.947947         1.386422        -2.273755
 H         3.494706        -0.503517        -1.250899
