19
Iteration:  1715
 C         0.139532        -0.428483        -0.559038
 C         1.434557         0.257669        -0.223463
 C         1.776023         0.668500         1.175329
 C         3.278191         0.826505         0.679132
 O         4.312728         0.136247         1.384889
 C         3.558906         2.259956         0.261287
 O         2.451886         2.556948        -0.710967
 C         2.068704         1.220244        -1.167789
 C         2.946081         0.102592        -0.584431
 H         0.101897        -1.398344        -0.008812
 H        -0.802238         0.174152        -0.210663
 H         0.277551        -0.683622        -1.683546
 H         1.119469         1.420456         1.757251
 H         1.845092        -0.192456         1.936401
 H         4.883327         0.772730         1.937797
 H         3.459858         3.036541         1.113613
 H         4.546341         2.314477        -0.327593
 H         1.753233         1.332737        -2.191670
 H         3.531752        -0.674812        -1.145902
