19
Iteration:  2585
 C         0.119810        -0.513594        -0.441134
 C         1.422309         0.216632        -0.230279
 C         1.810581         0.687459         1.146039
 C         3.386752         0.826796         0.682629
 O         4.397089         0.143950         1.423879
 C         3.505253         2.296727         0.327022
 O         2.499631         2.552841        -0.777027
 C         2.032077         1.327087        -1.187682
 C         2.886671         0.162830        -0.684490
 H        -0.122853        -1.481571         0.169274
 H        -0.699059         0.171761        -0.320757
 H         0.122914        -0.961262        -1.510293
 H         1.344689         1.489146         1.744242
 H         1.654289        -0.117900         1.875974
 H         4.033492        -0.630022         1.841717
 H         3.189199         2.924071         1.146000
 H         4.417983         2.637812        -0.106448
 H         1.664596         1.278182        -2.260827
 H         3.473341        -0.420727        -1.342629
