19
Iteration:  4475
 C         0.163310        -0.509863        -0.618882
 C         1.428755         0.344984        -0.253701
 C         1.849156         0.457081         1.150829
 C         3.219742         0.822737         0.663834
 O         4.309301         0.269980         1.471404
 C         3.401487         2.330401         0.329206
 O         2.540419         2.682045        -0.685130
 C         2.128954         1.215349        -1.165495
 C         2.970807         0.089166        -0.646481
 H         0.016963        -1.432480         0.107754
 H        -0.719350         0.136350        -0.376102
 H        -0.090130        -0.736591        -1.698416
 H         1.307803         1.179803         1.888302
 H         1.973629        -0.541523         1.650117
 H         4.146571        -0.707804         1.512131
 H         3.280052         2.893970         1.285447
 H         4.464686         2.381695         0.021631
 H         1.805671         1.163434        -2.195468
 H         3.653534        -0.471124        -1.351527
