19
Iteration:  4233charge 0 multiplicity 1
 C         0.137427        -0.661814        -0.554548
 C         1.372538         0.361447        -0.362770
 C         1.874096         0.554910         1.182415
 C         3.254454         0.790372         0.706803
 O         4.308028         0.173130         1.480856
 C         3.495786         2.371907         0.423326
 O         2.572612         2.648538        -0.710469
 C         2.110063         1.364746        -1.193507
 C         2.892556         0.128864        -0.702218
 H         0.351537        -1.720338        -0.187953
 H        -0.695125        -0.268648        -0.073507
 H        -0.091737        -0.841102        -1.643575
 H         1.388349         1.428285         1.743541
 H         1.817110        -0.334348         1.731436
 H         4.225947        -0.761374         1.267430
 H         3.139327         2.899589         1.353666
 H         4.457836         2.778686         0.081249
 H         1.721591         1.430276        -2.251183
 H         3.335161        -0.589545        -1.403971
