19
Iteration:  4373
 C         0.237188        -0.674841        -0.566864
 C         1.405976         0.274757        -0.317020
 C         1.850860         0.666898         1.233753
 C         3.275171         0.762797         0.590781
 O         4.270258         0.195042         1.481152
 C         3.452371         2.320784         0.423450
 O         2.589970         2.650693        -0.686076
 C         2.138518         1.364135        -1.197848
 C         2.784010         0.165701        -0.729165
 H         0.346574        -1.708851         0.011311
 H        -0.666265        -0.069985        -0.416336
 H         0.102490        -0.959136        -1.697043
 H         1.399093         1.495164         1.931092
 H         1.702421        -0.284938         1.796901
 H         4.361199        -0.774146         1.323183
 H         3.115066         2.761748         1.373517
 H         4.502926         2.680830         0.243755
 H         1.731102         1.403714        -2.260870
 H         3.293918        -0.545045        -1.336534
