19
Iteration:  4540
 C         0.213180        -0.536437        -0.764966
 C         1.284879         0.340165        -0.248975
 C         1.871644         0.626821         1.216762
 C         3.279530         0.783437         0.680997
 O         4.388018         0.360452         1.423827
 C         3.517219         2.247427         0.363742
 O         2.532338         2.493261        -0.585026
 C         2.100320         1.278866        -1.164727
 C         2.798341         0.106717        -0.653953
 H         0.118058        -1.561115        -0.226088
 H        -0.691168         0.029973        -0.767717
 H         0.316927        -0.659147        -1.861671
 H         1.308386         1.332113         1.884285
 H         1.747452        -0.327140         1.737953
 H         4.188292        -0.510593         1.847856
 H         3.400311         2.938992         1.235914
 H         4.557078         2.362151        -0.060687
 H         1.703231         1.403335        -2.192576
 H         3.226650        -0.739840        -1.224579
