19
Iteration:  2996charge 0 multiplicity 1
 C         0.151501        -0.511824        -0.623490
 C         1.411270         0.319139        -0.242127
 C         1.858468         0.664877         1.210932
 C         3.334370         0.785459         0.674464
 O         4.418745         0.325269         1.561983
 C         3.602381         2.154254         0.178911
 O         2.466726         2.543825        -0.588613
 C         1.939337         1.272938        -1.210434
 C         2.836004         0.126513        -0.747496
 H         0.173254        -1.608208        -0.303712
 H        -0.738582         0.026679        -0.152092
 H         0.021359        -0.530818        -1.719866
 H         1.462481         1.582801         1.689213
 H         1.599330        -0.332640         1.726098
 H         4.021103        -0.187851         2.274637
 H         3.738311         2.958079         1.000612
 H         4.530106         2.043166        -0.455969
 H         1.696036         1.332697        -2.278770
 H         3.112652        -0.834630        -1.301873
