19
Iteration:  1167charge 0 multiplicity 1
 C         0.173966        -0.457297        -0.407934
 C         1.373782         0.330524        -0.202966
 C         1.752531         0.718242         1.323311
 C         3.230547         0.777391         0.737896
 O         4.400368         0.117421         1.241932
 C         3.402316         2.271265         0.317947
 O         2.649816         2.552705        -0.876921
 C         2.075686         1.186733        -1.260607
 C         2.945440         0.146476        -0.574582
 H        -0.013838        -1.176658         0.449764
 H        -0.872936         0.127768        -0.372288
 H         0.207923        -0.859023        -1.430797
 H         1.353486         1.715772         1.471244
 H         1.479845         0.103300         2.215205
 H         4.068285        -0.470297         1.964145
 H         2.980335         3.074151         0.990636
 H         4.525984         2.499797         0.129821
 H         1.939890         1.139296        -2.367230
 H         3.466278        -0.476689        -1.165105
