19
Iteration:  3744
 C         0.322709        -0.545906        -0.605450
 C         1.392179         0.340322        -0.248918
 C         1.837711         0.602610         1.238246
 C         3.286685         0.785641         0.741221
 O         4.265112         0.250532         1.517555
 C         3.450419         2.152304         0.351394
 O         2.531200         2.607834        -0.816417
 C         2.078279         1.362767        -1.157234
 C         2.856693         0.147566        -0.732062
 H         0.313842        -1.538775        -0.172498
 H        -0.684377        -0.062397        -0.226514
 H         0.217892        -0.662327        -1.729729
 H         1.473651         1.561427         1.725017
 H         1.746162        -0.268559         1.952505
 H         4.378960        -0.664151         1.183265
 H         3.037715         2.738996         1.166845
 H         4.461596         2.444786        -0.009759
 H         1.584870         1.364850        -2.156639
 H         3.412555        -0.698824        -1.061152
