19
Iteration:   212
 C        -0.128141        -0.245096        -0.298196
 C         1.269175         0.394120        -0.046230
 C         1.905810         0.976299         1.214957
 C         3.380189         0.784180         0.684874
 O         4.487148         0.232764         1.380957
 C         3.691172         2.122659        -0.005148
 O         2.643309         2.322240        -0.971687
 C         2.016677         1.082003        -1.220307
 C         2.725683        -0.016095        -0.484106
 H        -0.358633        -0.836167         0.533595
 H        -0.912361         0.486974        -0.259613
 H        -0.113468        -0.841527        -1.181280
 H         1.656473         2.015479         1.572535
 H         1.607770         0.286078         2.059623
 H         4.152473        -0.168601         2.208466
 H         3.588614         2.918166         0.769329
 H         4.629389         2.147203        -0.518411
 H         1.681068         1.029047        -2.200482
 H         3.046295        -1.018213        -0.761546
