19
Iteration:  3598charge 0 multiplicity 1
 C         0.203176        -0.535117        -0.516451
 C         1.388627         0.353926        -0.270700
 C         1.828232         0.597100         1.166456
 C         3.231874         0.788399         0.650807
 O         4.313594         0.271855         1.454890
 C         3.458489         2.258693         0.397830
 O         2.516690         2.557769        -0.649503
 C         2.140955         1.297052        -1.242069
 C         2.888100         0.120927        -0.769709
 H         0.332573        -1.567031         0.028592
 H        -0.677752        -0.094163        -0.136523
 H         0.058448        -0.950825        -1.528274
 H         1.539609         1.528610         1.608006
 H         1.640105        -0.231100         1.878236
 H         4.435995        -0.720836         1.448550
 H         3.140307         2.731383         1.372757
 H         4.389934         2.720297         0.100364
 H         2.030264         1.382668        -2.351977
 H         3.529659        -0.552850        -1.365131
