19
Iteration:  2014
 C         0.182585        -0.551998        -0.562171
 C         1.353784         0.291161        -0.172856
 C         1.869839         0.589760         1.226404
 C         3.314940         0.800754         0.630274
 O         4.400179         0.332161         1.394972
 C         3.597603         2.240222         0.332722
 O         2.583699         2.510111        -0.722705
 C         1.949536         1.333924        -1.157273
 C         2.695025         0.127210        -0.717492
 H         0.127629        -1.284705         0.202111
 H        -0.750711        -0.020519        -0.608829
 H         0.356058        -0.798901        -1.670688
 H         1.287952         1.305537         1.841215
 H         2.001005        -0.379756         1.828478
 H         4.237531        -0.357399         2.083120
 H         3.383495         2.889551         1.215804
 H         4.611991         2.427651        -0.260865
 H         1.564664         1.562814        -2.165986
 H         3.260365        -0.703704        -1.244320
