19
Iteration:  3380charge 0 multiplicity 1
 C         0.210047        -0.601186        -0.720780
 C         1.368568         0.318668        -0.233894
 C         1.861796         0.599826         1.173414
 C         3.288993         0.813501         0.715423
 O         4.328850         0.243229         1.477056
 C         3.596101         2.301094         0.296576
 O         2.448231         2.544531        -0.643179
 C         1.986776         1.330531        -1.120103
 C         2.888903         0.151335        -0.638847
 H         0.381042        -1.576533        -0.256579
 H        -0.675505        -0.163770        -0.357235
 H         0.059424        -0.430830        -1.800953
 H         1.402959         1.342083         1.880269
 H         1.902169        -0.366919         1.804457
 H         4.450385        -0.623491         1.130146
 H         3.486472         3.088944         0.947531
 H         4.514451         2.639148        -0.137093
 H         1.684898         1.366660        -2.146833
 H         3.321739        -0.755344        -1.124159
