19
Iteration:  2002charge 0 multiplicity 1
 C         0.121314        -0.521878        -0.627293
 C         1.331163         0.285522        -0.194546
 C         1.871791         0.570107         1.284672
 C         3.317494         0.749646         0.699405
 O         4.490841         0.394753         1.469473
 C         3.577951         2.191353         0.182630
 O         2.561606         2.571081        -0.667151
 C         1.917957         1.329074        -1.152009
 C         2.783703         0.101779        -0.739259
 H        -0.047276        -1.498416        -0.257782
 H        -0.795188         0.047831        -0.490960
 H         0.250432        -0.939874        -1.700409
 H         1.583368         1.463391         1.897321
 H         1.667929        -0.398544         1.850365
 H         4.142097        -0.302815         1.993308
 H         3.509348         2.887046         1.066207
 H         4.730846         2.281247        -0.146780
 H         1.388579         1.391148        -2.154874
 H         3.061169        -0.757155        -1.399216
