19
Iteration:  1042
 C         0.185852        -0.390192        -0.361806
 C         1.369896         0.351652        -0.143796
 C         1.746920         0.709694         1.262166
 C         3.265797         0.813466         0.657980
 O         4.399164         0.188445         1.419301
 C         3.431913         2.288599         0.296247
 O         2.716503         2.457090        -0.976891
 C         2.081301         1.236709        -1.205343
 C         2.782876         0.073884        -0.618969
 H         0.241024        -1.407075         0.134048
 H        -0.772621         0.014393         0.083262
 H         0.041391        -0.638357        -1.459639
 H         1.316797         1.725088         1.561102
 H         1.518026        -0.136069         1.939059
 H         4.395528        -0.764863         1.214841
 H         3.055203         2.880583         1.165139
 H         4.478204         2.583503         0.017778
 H         1.735721         1.261150        -2.213048
 H         3.155584        -0.767048        -1.230576
