19
Iteration:  3171charge 0 multiplicity 1
 C         0.230753        -0.572761        -0.588397
 C         1.347596         0.332381        -0.183749
 C         1.806987         0.621241         1.265275
 C         3.243945         0.820057         0.717177
 O         4.415581         0.247258         1.322172
 C         3.486041         2.210630         0.334062
 O         2.586032         2.571344        -0.742623
 C         2.042232         1.313128        -1.172268
 C         2.824518         0.130974        -0.702589
 H         0.251141        -1.549643        -0.016661
 H        -0.668315        -0.050585        -0.301444
 H         0.043604        -0.790454        -1.632896
 H         1.412969         1.470854         1.748441
 H         1.472551        -0.227633         1.873272
 H         4.236364        -0.173348         2.234835
 H         3.313307         2.884852         1.232571
 H         4.526181         2.405104         0.091737
 H         1.756562         1.341052        -2.234051
 H         3.230552        -0.587258        -1.375314
