19
Iteration:  2876
 C         0.163782        -0.534596        -0.613968
 C         1.276738         0.342680        -0.177286
 C         1.821205         0.554415         1.234552
 C         3.300791         0.779401         0.715985
 O         4.425590         0.340579         1.393670
 C         3.576414         2.189831         0.299739
 O         2.615665         2.575783        -0.806613
 C         2.026416         1.338275        -1.165022
 C         2.770422         0.114973        -0.601045
 H         0.245954        -1.429812        -0.145100
 H        -0.790347        -0.027136        -0.276699
 H         0.051029        -0.903598        -1.609943
 H         1.268694         1.339684         1.723205
 H         1.671452        -0.431947         1.707922
 H         4.156256        -0.354435         2.011745
 H         3.474921         2.967981         1.069293
 H         4.592689         2.124002        -0.001372
 H         1.400468         1.285090        -2.055639
 H         3.426317        -0.556533        -1.201436
