19
Iteration:  4815charge 0 multiplicity 1
 C         0.221366        -0.588248        -0.667639
 C         1.356496         0.290892        -0.296655
 C         1.746921         0.596605         1.246057
 C         3.202812         0.768217         0.732425
 O         4.370823         0.296515         1.353302
 C         3.533004         2.246832         0.330246
 O         2.608185         2.617500        -0.664838
 C         2.046605         1.321790        -1.109394
 C         2.841600         0.113297        -0.631460
 H         0.045232        -1.606296        -0.169948
 H        -0.670691        -0.013276        -0.620632
 H         0.343566        -0.745454        -1.709954
 H         1.276905         1.501706         1.640464
 H         1.627378        -0.326189         1.782278
 H         4.235836        -0.401921         1.973460
 H         3.507911         2.932868         1.198862
 H         4.588167         2.321570         0.021683
 H         2.031268         1.468720        -2.184540
 H         3.344598        -0.657053        -1.254368
