19
Iteration:  2307charge 0 multiplicity 1
 C         0.144373        -0.505881        -0.403995
 C         1.407796         0.232828        -0.240849
 C         1.817232         0.545096         1.167671
 C         3.314609         0.769985         0.650286
 O         4.348042         0.236854         1.430242
 C         3.470128         2.338014         0.315485
 O         2.612894         2.559144        -0.792446
 C         1.991619         1.338263        -1.144018
 C         2.911448         0.161465        -0.805289
 H         0.215380        -1.382268         0.237087
 H        -0.531235         0.228831         0.023458
 H        -0.096467        -0.895750        -1.356298
 H         1.270062         1.294503         1.773285
 H         1.799837        -0.251372         1.906259
 H         3.979523        -0.594376         1.848083
 H         3.120898         2.977589         1.169355
 H         4.549181         2.538524         0.176561
 H         1.589450         1.469961        -2.184798
 H         3.428690        -0.591307        -1.345354
