19
Iteration:  2174charge 0 multiplicity 1
 C         0.148377        -0.510321        -0.391843
 C         1.419983         0.271949        -0.215963
 C         1.781472         0.663450         1.207401
 C         3.344681         0.741138         0.663797
 O         4.452705         0.157604         1.342054
 C         3.328431         2.287170         0.394993
 O         2.563773         2.560023        -0.782826
 C         2.059522         1.289268        -1.252726
 C         2.883062         0.234177        -0.723236
 H         0.111229        -1.540071         0.127783
 H        -0.816666         0.029867        -0.141947
 H        -0.002696        -0.714441        -1.416893
 H         1.428047         1.633103         1.641477
 H         1.579647        -0.216129         1.783458
 H         4.218781        -0.624459         1.942964
 H         3.118694         2.977172         1.238842
 H         4.495614         2.600848         0.267897
 H         1.951945         1.330339        -2.339084
 H         3.451520        -0.594489        -1.315292
