19
Iteration:  3946charge 0 multiplicity 1
 C         0.252760        -0.511877        -0.599607
 C         1.383113         0.303284        -0.225722
 C         1.818342         0.537975         1.238994
 C         3.222282         0.805972         0.707012
 O         4.238980         0.281637         1.441596
 C         3.536847         2.250874         0.336892
 O         2.562548         2.598496        -0.806895
 C         2.071630         1.275730        -1.174232
 C         2.898830         0.184438        -0.649508
 H         0.249103        -1.530813        -0.083854
 H        -0.687485        -0.062729        -0.258336
 H         0.244590        -0.813211        -1.657118
 H         1.305404         1.322733         1.874981
 H         1.759624        -0.434995         1.686104
 H         4.179400        -0.643297         1.730916
 H         3.392216         2.831885         1.282187
 H         4.632012         2.298187         0.086723
 H         1.737627         1.326862        -2.244922
 H         3.534595        -0.438119        -1.246440
