19
Iteration:  2597charge 0 multiplicity 1
 C         0.222492        -0.559835        -0.493275
 C         1.415259         0.291832        -0.206463
 C         1.796571         0.703932         1.240219
 C         3.273884         0.771023         0.668300
 O         4.408768         0.143469         1.311236
 C         3.463009         2.363590         0.382318
 O         2.625834         2.571967        -0.818078
 C         1.943150         1.290730        -1.169459
 C         2.839990         0.118236        -0.636547
 H         0.212456        -1.368485         0.342214
 H        -0.708422         0.049364        -0.410889
 H         0.201355        -0.972414        -1.569382
 H         1.438065         1.677833         1.428438
 H         1.677047        -0.151228         1.927566
 H         4.013413        -0.603887         1.869209
 H         3.058669         2.969805         1.197063
 H         4.516355         2.581578         0.228306
 H         1.635038         1.377211        -2.237630
 H         3.337569        -0.675162        -1.160371
