19
Iteration:  2260charge 0 multiplicity 1
 C         0.191203        -0.451582        -0.772123
 C         1.337651         0.286997        -0.149972
 C         1.886337         0.717637         1.260020
 C         3.335664         0.836890         0.703995
 O         4.426939         0.369600         1.326658
 C         3.646569         2.194890         0.125394
 O         2.368048         2.462034        -0.479485
 C         2.049700         1.252030        -1.170319
 C         2.745345         0.014551        -0.544974
 H         0.303535        -1.536905        -0.476356
 H        -0.727418         0.075870        -0.414184
 H         0.397097        -0.512533        -1.769333
 H         1.431929         1.525244         1.888594
 H         1.681679        -0.094629         1.953123
 H         4.136760        -0.369354         1.888026
 H         3.856315         2.914075         0.866006
 H         4.456888         2.113779        -0.572745
 H         1.622877         1.233382        -2.136589
 H         3.188004        -0.782360        -1.262498
