19
Iteration:  4182charge 0 multiplicity 1
 C         0.301314        -0.554208        -0.663213
 C         1.356134         0.343869        -0.238518
 C         1.750759         0.637559         1.237416
 C         3.227163         0.808765         0.729978
 O         4.367087         0.244050         1.364769
 C         3.478724         2.274889         0.337346
 O         2.524165         2.554175        -0.605053
 C         2.144782         1.298539        -1.173694
 C         2.799586         0.142253        -0.684922
 H         0.269542        -1.423240        -0.041745
 H        -0.773888        -0.129754        -0.648185
 H         0.628569        -0.966545        -1.606687
 H         1.191838         1.400588         1.726249
 H         1.759046        -0.332171         1.849416
 H         4.387533        -0.689809         1.227755
 H         3.446703         3.010512         1.162159
 H         4.433514         2.303669        -0.208472
 H         1.675020         1.418936        -2.188193
 H         3.398581        -0.689907        -1.020716
