19
Iteration:  1844
 C         0.113398        -0.407892        -0.640091
 C         1.462585         0.244534        -0.194655
 C         1.972908         0.794877         1.214006
 C         3.345938         0.790806         0.613534
 O         4.302415         0.303896         1.391999
 C         3.536855         2.168869         0.182377
 O         2.343680         2.472075        -0.560788
 C         2.041823         1.205121        -1.121506
 C         2.911002         0.042438        -0.629443
 H         0.112256        -1.355309        -0.083868
 H        -0.729142         0.352893        -0.539215
 H         0.174518        -0.637536        -1.694643
 H         1.524013         1.785304         1.519215
 H         1.759792         0.018724         1.934506
 H         4.063904        -0.432992         1.895865
 H         3.652557         2.903822         1.056657
 H         4.446198         2.504777        -0.333857
 H         1.877048         1.291008        -2.201105
 H         3.541566        -0.829708        -1.004876
