19
Iteration:  1894charge 0 multiplicity 1
 C         0.234866        -0.672288        -0.479155
 C         1.291737         0.374948        -0.178888
 C         1.799492         0.532195         1.284120
 C         3.204899         0.833569         0.655143
 O         4.331182         0.309194         1.327499
 C         3.553119         2.200006         0.312645
 O         2.719626         2.612705        -0.838495
 C         2.073364         1.354326        -1.179604
 C         2.711370         0.191318        -0.622953
 H         0.369444        -1.501688         0.252075
 H        -0.720425        -0.160534        -0.432097
 H         0.126029        -0.931553        -1.585587
 H         1.349523         1.180209         2.026209
 H         1.962476        -0.521305         1.733046
 H         4.115914        -0.417653         1.967340
 H         3.571511         2.896578         1.117226
 H         4.577423         2.272698        -0.026931
 H         1.656413         1.305546        -2.200969
 H         3.134934        -0.543612        -1.243907
