19
Iteration:  2742
 C         0.153539        -0.546302        -0.561847
 C         1.340010         0.333290        -0.171691
 C         1.871353         0.509112         1.312018
 C         3.265263         0.814962         0.651544
 O         4.347208         0.350964         1.372277
 C         3.556435         2.293771         0.314648
 O         2.703850         2.532230        -0.860425
 C         2.040834         1.238982        -1.110420
 C         2.727492         0.139380        -0.648985
 H        -0.067729        -1.349325         0.120381
 H        -0.717754         0.206435        -0.579260
 H         0.257403        -0.869184        -1.576257
 H         1.442003         1.308831         1.839707
 H         1.960411        -0.454587         1.878272
 H         4.048928        -0.370875         1.899973
 H         3.064823         2.889633         1.133863
 H         4.556888         2.456163         0.135027
 H         1.538017         1.306576        -2.095934
 H         3.030555        -0.562642        -1.440048
