19
Iteration:   550
 C        -0.058162        -0.297697        -0.303298
 C         1.300982         0.327683        -0.175370
 C         1.833008         0.823307         1.207392
 C         3.358079         0.847157         0.661742
 O         4.398971         0.329397         1.487629
 C         3.751668         2.165305        -0.014848
 O         2.621432         2.378543        -0.816676
 C         2.048941         1.159476        -1.228175
 C         2.742403        -0.050982        -0.547929
 H        -0.234848        -1.021674         0.456679
 H        -0.934487         0.407758        -0.365110
 H        -0.230189        -0.997122        -1.129686
 H         1.457401         1.771342         1.619939
 H         1.866725        -0.042001         1.873524
 H         3.917447        -0.478565         1.790777
 H         3.830827         2.977723         0.724233
 H         4.761462         2.336785        -0.675881
 H         1.779414         1.064960        -2.337334
 H         3.124312        -0.952909        -0.953419
