19
Iteration:  2772charge 0 multiplicity 1
 C         0.238639        -0.546078        -0.597980
 C         1.269741         0.462060        -0.152737
 C         1.820644         0.549798         1.334250
 C         3.226713         0.756370         0.672400
 O         4.491262         0.299455         1.467085
 C         3.519001         2.243386         0.264927
 O         2.691544         2.562062        -0.873923
 C         1.976464         1.243183        -1.217468
 C         2.641147         0.157921        -0.614092
 H         0.277744        -1.517011        -0.011421
 H        -0.669868        -0.141706        -0.626338
 H         0.552706        -0.779619        -1.628079
 H         1.465948         1.387338         2.014741
 H         1.748231        -0.355698         1.989196
 H         4.432686        -0.695118         1.364701
 H         3.256819         2.884972         1.110990
 H         4.651105         2.426337         0.118297
 H         1.322338         1.470514        -2.052938
 H         3.113459        -0.769234        -1.110516
