19
Iteration:  2950charge 0 multiplicity 1
 C         0.084175        -0.434943        -0.522808
 C         1.391580         0.226181        -0.314922
 C         1.840384         0.597177         1.159435
 C         3.324203         0.842753         0.748357
 O         4.372770         0.240017         1.549830
 C         3.577906         2.262871         0.285675
 O         2.442598         2.545604        -0.734660
 C         2.070915         1.293823        -1.226746
 C         2.875426         0.122448        -0.704053
 H         0.049827        -1.326509         0.278885
 H        -0.743271         0.252031        -0.271879
 H        -0.082804        -0.939853        -1.447651
 H         1.335847         1.436759         1.678305
 H         1.940043        -0.301301         1.877249
 H         4.578349        -0.713560         1.352914
 H         3.514228         3.048373         1.134201
 H         4.557482         2.258833        -0.269975
 H         1.662543         1.404564        -2.245541
 H         3.544114        -0.524208        -1.291742
