19
Iteration:  4121charge 0 multiplicity 1
 C         0.225663        -0.349554        -0.664881
 C         1.510338         0.219501        -0.247974
 C         1.914185         0.547751         1.171202
 C         3.306345         0.815740         0.632807
 O         4.298374         0.295638         1.540767
 C         3.494656         2.259906         0.250513
 O         2.408115         2.477824        -0.599902
 C         2.028362         1.275358        -1.140985
 C         2.886563         0.098730        -0.727556
 H         0.109716        -1.373926        -0.240264
 H        -0.517590         0.289276        -0.224976
 H        -0.027977        -0.350934        -1.742177
 H         1.266590         1.201294         1.801019
 H         1.976373        -0.407131         1.684796
 H         3.782151        -0.323460         2.041278
 H         3.590350         2.909752         1.115047
 H         4.338582         2.465172        -0.455791
 H         1.509416         1.329764        -2.084030
 H         3.655667        -0.440761        -1.286333
