19
Iteration:  2023
 C         0.224874        -0.550595        -0.511659
 C         1.318243         0.367319        -0.134015
 C         1.874889         0.579629         1.181043
 C         3.280332         0.844586         0.591588
 O         4.332489         0.253315         1.314593
 C         3.527252         2.281295         0.360060
 O         2.582577         2.527881        -0.745158
 C         2.065623         1.309046        -1.124796
 C         2.794286         0.147712        -0.677129
 H         0.085683        -1.347505         0.208851
 H        -0.772568        -0.072343        -0.451820
 H         0.292737        -1.197453        -1.456489
 H         1.383582         1.368273         1.802969
 H         1.924812        -0.351954         1.768496
 H         4.053308        -0.457351         1.959146
 H         3.311503         2.920646         1.243622
 H         4.606784         2.361234        -0.031759
 H         1.540294         1.222577        -2.118107
 H         3.290139        -0.599169        -1.329492
