19
Iteration:  2964charge 0 multiplicity 1
 C         0.036041        -0.507491        -0.488687
 C         1.432729         0.225118        -0.283094
 C         1.845519         0.583357         1.093586
 C         3.308646         0.769899         0.591898
 O         4.294431         0.397258         1.563280
 C         3.653542         2.201525         0.213131
 O         2.514258         2.603661        -0.573125
 C         1.985269         1.257951        -1.167465
 C         2.943864         0.108195        -0.710017
 H        -0.099104        -1.408738         0.122862
 H        -0.677082         0.364091        -0.283157
 H        -0.188792        -0.764063        -1.545276
 H         1.259057         1.421650         1.565365
 H         1.767198        -0.433967         1.655657
 H         4.291895        -0.567873         1.469528
 H         3.723620         2.960162         1.052893
 H         4.615517         2.317699        -0.316891
 H         1.869386         1.250620        -2.261091
 H         3.411883        -0.723685        -1.350448
