19
Iteration:  2944charge 0 multiplicity 1
 C         0.104228        -0.443190        -0.503496
 C         1.410843         0.283655        -0.256408
 C         1.829027         0.583425         1.197602
 C         3.308020         0.833467         0.734486
 O         4.389205         0.199718         1.529444
 C         3.497458         2.289790         0.264800
 O         2.463296         2.500588        -0.755610
 C         2.139245         1.268051        -1.230154
 C         2.849495         0.176605        -0.671241
 H         0.090849        -1.271657         0.103233
 H        -0.707047         0.315636        -0.417917
 H         0.021843        -0.972310        -1.499051
 H         1.504845         1.547541         1.630666
 H         1.681167        -0.339272         1.744939
 H         4.513732        -0.693771         1.219418
 H         3.442774         2.978177         1.072848
 H         4.444879         2.463063        -0.228900
 H         1.603208         1.418961        -2.165344
 H         3.483767        -0.468084        -1.327517
