19
Iteration:   860charge 0 multiplicity 1
 C         0.019816        -0.468599        -0.381554
 C         1.327359         0.354558        -0.101116
 C         1.825093         0.820875         1.282397
 C         3.307863         0.799440         0.688928
 O         4.398124         0.207362         1.377155
 C         3.587713         2.244540         0.173731
 O         2.666524         2.440281        -0.951705
 C         2.068053         1.190932        -1.225812
 C         2.809480         0.085718        -0.581688
 H        -0.029722        -1.488637         0.076470
 H        -0.829708         0.189364         0.035529
 H        -0.049022        -0.437174        -1.456891
 H         1.410951         1.794266         1.764914
 H         1.475511         0.007808         2.020287
 H         3.974970        -0.589428         1.856129
 H         3.381184         3.056749         0.899140
 H         4.637664         2.441524        -0.208128
 H         1.609162         1.133269        -2.227760
 H         3.430610        -0.718442        -0.902042
