19
Iteration:   433
 C        -0.000718        -0.316203        -0.224752
 C         1.296639         0.412510        -0.094943
 C         1.999798         0.877805         1.237756
 C         3.304725         0.821107         0.649461
 O         4.308229         0.251595         1.419633
 C         3.628847         2.169498         0.112618
 O         2.684111         2.353262        -1.053246
 C         2.064950         1.136107        -1.233351
 C         2.740069        -0.006620        -0.503842
 H        -0.129304        -1.165387         0.486864
 H        -0.833325         0.463268        -0.025504
 H        -0.191862        -0.710375        -1.243024
 H         1.688188         1.825782         1.737344
 H         1.799955        -0.048295         1.869083
 H         4.092761        -0.694800         1.630316
 H         3.412351         2.972956         0.882725
 H         4.670500         2.494702        -0.278507
 H         1.584188         1.043164        -2.303319
 H         3.006198        -0.907843        -1.010159
