19
Iteration:  4972charge 0 multiplicity 1
 C         0.218463        -0.583980        -0.578508
 C         1.393649         0.309077        -0.340561
 C         1.754207         0.615595         1.130044
 C         3.295255         0.774761         0.790244
 O         4.353647         0.189015         1.449380
 C         3.513975         2.231677         0.278233
 O         2.468879         2.615209        -0.631488
 C         2.151480         1.358444        -1.246973
 C         2.860240         0.195481        -0.658102
 H         0.275921        -1.552474        -0.079238
 H        -0.758790        -0.186101        -0.204983
 H         0.206896        -0.752142        -1.694006
 H         1.351377         1.450386         1.692075
 H         1.486077        -0.302135         1.765026
 H         4.075250        -0.303409         2.241879
 H         3.337242         2.932332         1.098323
 H         4.599999         2.322367        -0.068102
 H         1.840623         1.336748        -2.282418
 H         3.557908        -0.535436        -1.114506
