19
Iteration:  4034charge 0 multiplicity 1
 C         0.191649        -0.539833        -0.742954
 C         1.298445         0.390404        -0.128667
 C         1.861726         0.484493         1.246776
 C         3.307418         0.848842         0.769289
 O         4.424128         0.232933         1.457547
 C         3.438221         2.319159         0.282014
 O         2.603773         2.543361        -0.826366
 C         2.042203         1.311245        -1.137304
 C         2.776386         0.169785        -0.576043
 H         0.217829        -1.553832        -0.224348
 H        -0.803833        -0.156743        -0.767666
 H         0.375296        -0.576288        -1.844681
 H         1.408191         1.251017         1.926384
 H         1.720768        -0.488178         1.596565
 H         4.157734        -0.661041         1.736068
 H         3.318316         2.925765         1.237207
 H         4.531550         2.582740        -0.000823
 H         1.854437         1.218157        -2.237662
 H         3.164120        -0.677633        -1.139640
