19
Iteration:  4197
 C         0.336334        -0.608438        -0.614523
 C         1.473113         0.334746        -0.176894
 C         1.812762         0.606354         1.254754
 C         3.200066         0.801042         0.680508
 O         4.220505         0.166917         1.336115
 C         3.469766         2.282323         0.423176
 O         2.569809         2.611318        -0.773424
 C         2.017280         1.357047        -1.159397
 C         2.924249         0.165599        -0.627128
 H         0.259260        -1.442444         0.144377
 H        -0.650668        -0.065723        -0.568432
 H         0.393190        -0.950683        -1.675004
 H         1.489718         1.598855         1.731461
 H         1.555936        -0.284452         1.914537
 H         4.199814        -0.740139         0.977746
 H         3.102971         2.851182         1.274839
 H         4.545282         2.535393         0.290878
 H         1.629019         1.339415        -2.145783
 H         3.407542        -0.467034        -1.379027
