19
Iteration:  2161charge 0 multiplicity 1
 C         0.130653        -0.503003        -0.537555
 C         1.404576         0.270920        -0.201477
 C         1.829887         0.632574         1.210071
 C         3.314073         0.795577         0.665099
 O         4.435345         0.236361         1.307086
 C         3.499087         2.286250         0.343681
 O         2.543438         2.551483        -0.728253
 C         2.044939         1.277387        -1.153530
 C         2.857962         0.101603        -0.658869
 H         0.158274        -1.540588        -0.078954
 H        -0.712561         0.066085        -0.030288
 H        -0.043972        -0.490763        -1.584244
 H         1.240040         1.512858         1.599269
 H         1.689218        -0.166384         1.978031
 H         4.009133        -0.235431         2.009047
 H         3.003563         2.677645         1.217559
 H         4.523372         2.690815         0.001296
 H         1.539831         1.279720        -2.169673
 H         3.349463        -0.650202        -1.285252
