19
Iteration:  1199
 C         0.117132        -0.459642        -0.482042
 C         1.295088         0.373241        -0.185080
 C         1.890222         0.617272         1.239124
 C         3.338093         0.816287         0.642705
 O         4.271016         0.185964         1.418541
 C         3.532697         2.324884         0.272220
 O         2.643215         2.476943        -0.797218
 C         2.032739         1.211500        -1.219046
 C         2.819170         0.076445        -0.644263
 H         0.179097        -1.425357        -0.020131
 H        -0.803993         0.142379        -0.316201
 H         0.057139        -0.729441        -1.497245
 H         1.357910         1.340137         1.885195
 H         2.023826        -0.295815         1.858703
 H         4.918521         0.804723         1.862535
 H         3.166841         3.002257         1.080720
 H         4.592084         2.566510         0.056822
 H         1.775747         1.313583        -2.289926
 H         3.181586        -0.767929        -1.116171
