19
Iteration:  3683charge 0 multiplicity 1
 C         0.198876        -0.449503        -0.680185
 C         1.454081         0.248949        -0.257163
 C         1.771025         0.618122         1.166984
 C         3.275188         0.769876         0.737748
 O         4.419370         0.329253         1.495606
 C         3.503490         2.225264         0.227789
 O         2.385887         2.506236        -0.569703
 C         2.095906         1.277911        -1.146488
 C         2.915420         0.075117        -0.750831
 H        -0.044555        -1.374104        -0.129448
 H        -0.592120         0.296348        -0.514073
 H         0.149587        -0.456390        -1.741680
 H         1.370320         1.525403         1.646447
 H         1.682137        -0.191511         1.873115
 H         3.980121        -0.288083         2.138162
 H         3.634938         2.853662         1.174271
 H         4.504700         2.351218        -0.278255
 H         1.704663         1.331749        -2.187638
 H         3.538464        -0.521976        -1.429491
