19
Iteration:  1114charge 0 multiplicity 1
 C         0.083639        -0.479045        -0.566414
 C         1.334220         0.313395        -0.172063
 C         1.903306         0.690464         1.247686
 C         3.333179         0.735149         0.653769
 O         4.262696         0.300090         1.647075
 C         3.700371         2.106116         0.041179
 O         2.482937         2.519035        -0.680634
 C         2.011151         1.293232        -1.142866
 C         2.813397         0.109624        -0.726200
 H        -0.079370        -1.429447         0.058048
 H        -0.826856         0.160106        -0.310754
 H         0.181567        -0.688615        -1.664373
 H         1.487908         1.535693         1.747719
 H         1.981831        -0.214025         1.884725
 H         5.168886         0.545930         1.410661
 H         3.930986         3.031522         0.577098
 H         4.505958         1.912351        -0.739952
 H         1.625835         1.449762        -2.168488
 H         3.311686        -0.555342        -1.330484
