19
Iteration:  3308charge 0 multiplicity 1
 C         0.134017        -0.533539        -0.635834
 C         1.436498         0.317437        -0.179552
 C         1.870758         0.482186         1.240502
 C         3.290473         0.780422         0.640868
 O         4.309448         0.199237         1.419981
 C         3.485254         2.279429         0.332675
 O         2.484908         2.592594        -0.716492
 C         2.061506         1.330377        -1.168336
 C         2.927068         0.174199        -0.697853
 H         0.101518        -1.355788         0.013132
 H        -0.863244         0.017256        -0.548627
 H         0.192661        -0.875445        -1.684520
 H         1.528822         1.235613         1.960651
 H         1.863292        -0.469068         1.709073
 H         4.538185         0.816974         2.109991
 H         3.471747         2.952709         1.196809
 H         4.539861         2.382447        -0.055636
 H         1.597969         1.412085        -2.153398
 H         3.230710        -0.669344        -1.261330
