19
Iteration:  3093
 C         0.125862        -0.427399        -0.521660
 C         1.426726         0.299901        -0.277231
 C         1.860322         0.579427         1.167713
 C         3.304940         0.791949         0.650618
 O         4.280543         0.255142         1.502164
 C         3.522080         2.218203         0.279685
 O         2.509214         2.527319        -0.659570
 C         2.069690         1.261278        -1.196644
 C         2.828433         0.096264        -0.726886
 H         0.183910        -1.219206         0.300774
 H        -0.761734         0.019301        -0.220846
 H         0.171350        -0.889778        -1.444978
 H         1.355334         1.337744         1.689398
 H         2.076352        -0.321064         1.702164
 H         5.036683         0.728198         1.851436
 H         3.447989         2.954674         1.094981
 H         4.368215         2.269557        -0.336082
 H         1.912926         1.454518        -2.231574
 H         3.288077        -0.608027        -1.457848
