19
Iteration:  2009charge 0 multiplicity 1
 C         0.154579        -0.534843        -0.590800
 C         1.349792         0.266957        -0.205741
 C         1.868731         0.587628         1.268690
 C         3.313153         0.753339         0.681389
 O         4.449174         0.369090         1.425899
 C         3.608263         2.223957         0.258581
 O         2.584246         2.531983        -0.696133
 C         1.904097         1.334659        -1.171188
 C         2.717171         0.113642        -0.736854
 H         0.118243        -1.494631         0.040450
 H        -0.779819         0.095910        -0.606139
 H         0.372801        -0.827359        -1.593175
 H         1.377672         1.360557         1.883083
 H         1.909939        -0.344119         1.790433
 H         4.103660        -0.322318         2.036355
 H         3.529369         2.904484         1.122895
 H         4.574671         2.480868        -0.067214
 H         1.516870         1.585918        -2.161760
 H         3.136511        -0.710987        -1.237533
