19
Iteration:  2406charge 0 multiplicity 1
 C         0.146759        -0.463884        -0.689684
 C         1.386114         0.282887        -0.202763
 C         1.846750         0.672878         1.209580
 C         3.351655         0.785526         0.714871
 O         4.511706         0.269482         1.510716
 C         3.546246         2.239584         0.059099
 O         2.351991         2.523439        -0.538313
 C         1.998472         1.287263        -1.119873
 C         2.847013         0.130392        -0.673499
 H         0.154281        -1.503170        -0.149383
 H        -0.806000         0.101392        -0.466664
 H         0.283616        -0.549394        -1.794949
 H         1.262996         1.527481         1.704470
 H         1.789936        -0.254331         1.822405
 H         4.158541        -0.572834         1.814518
 H         3.951297         2.904604         0.828683
 H         4.340044         1.995712        -0.610461
 H         1.616697         1.218245        -2.150789
 H         3.333269        -0.678436        -1.183045
