19
Iteration:  2255charge 0 multiplicity 1
 C         0.222796        -0.465521        -0.735736
 C         1.359203         0.283564        -0.138981
 C         1.846536         0.712661         1.217049
 C         3.342562         0.798127         0.705486
 O         4.462627         0.375246         1.358022
 C         3.674049         2.191059         0.132603
 O         2.353317         2.499900        -0.505955
 C         2.022551         1.223829        -1.141461
 C         2.689819         0.031480        -0.553679
 H         0.126879        -1.535026        -0.519090
 H        -0.721018         0.041960        -0.540637
 H         0.437541        -0.415013        -1.936635
 H         1.476768         1.545872         1.817526
 H         1.735432        -0.144526         1.957439
 H         4.192308        -0.447908         1.848446
 H         3.844717         3.040901         0.875451
 H         4.503653         1.916721        -0.601973
 H         1.626210         1.360505        -2.198365
 H         3.209007        -0.579419        -1.212147
