19
Iteration:   522
 C         0.040655        -0.217989        -0.337647
 C         1.439389         0.260762        -0.085222
 C         1.905116         0.970861         1.189259
 C         3.308573         0.800269         0.686374
 O         4.256189         0.212900         1.565179
 C         3.690114         2.080037        -0.065153
 O         2.471327         2.415284        -0.843164
 C         1.977690         1.113204        -1.176501
 C         2.875048        -0.007658        -0.559735
 H        -0.309783        -1.244218         0.070352
 H        -0.705615         0.513770         0.061726
 H        -0.027931        -0.429446        -1.412890
 H         1.711257         2.048775         1.225527
 H         1.814699         0.375673         2.126671
 H         4.785599        -0.275225         0.839917
 H         3.891132         2.891738         0.673062
 H         4.475276         1.981922        -0.806991
 H         1.698987         0.901319        -2.131727
 H         3.559368        -0.732747        -1.070419
