19
Iteration:  3190
 C         0.151703        -0.633510        -0.447226
 C         1.345720         0.314113        -0.260970
 C         1.794296         0.542110         1.170340
 C         3.261028         0.767258         0.638347
 O         4.328004         0.103712         1.362022
 C         3.496683         2.361038         0.371805
 O         2.691535         2.604332        -0.774315
 C         2.044838         1.367427        -1.179186
 C         2.832641         0.220122        -0.674840
 H         0.500567        -1.570368         0.216568
 H        -0.866651        -0.376002        -0.126260
 H         0.184346        -0.971648        -1.469622
 H         1.247613         1.400378         1.753407
 H         1.832718        -0.375144         1.768905
 H         4.229426         0.760215         2.117930
 H         3.211746         3.118475         1.114981
 H         4.629303         2.550111         0.111353
 H         1.586716         1.502459        -2.141009
 H         3.391919        -0.548540        -1.244641
