19
Iteration:  4661
 C         0.193196        -0.513224        -0.729439
 C         1.319759         0.321373        -0.167388
 C         1.861225         0.489594         1.252206
 C         3.274574         0.854856         0.703508
 O         4.304621         0.250412         1.400591
 C         3.477720         2.339875         0.446983
 O         2.635544         2.551500        -0.801345
 C         2.068334         1.306514        -1.130270
 C         2.825097         0.102320        -0.659738
 H         0.161316        -1.448969        -0.035526
 H        -0.747389         0.016143        -0.695300
 H         0.364526        -0.812336        -1.751327
 H         1.361720         1.193066         1.996546
 H         2.057809        -0.413995         1.838692
 H         4.117984        -0.727452         1.533960
 H         2.992837         3.056462         1.150294
 H         4.545483         2.582965         0.157087
 H         1.712430         1.358386        -2.156775
 H         3.532773        -0.360470        -1.282146
