19
Iteration:  3841charge 0 multiplicity 1
 C         0.027726        -0.492352        -0.568430
 C         1.416998         0.229937        -0.287701
 C         1.968882         0.533307         1.115505
 C         3.374187         0.833244         0.609682
 O         4.205814         0.332849         1.626500
 C         3.613613         2.337587         0.242888
 O         2.385332         2.538578        -0.532641
 C         2.131821         1.220231        -1.268995
 C         2.981052         0.116993        -0.770527
 H        -0.164367        -1.323500         0.104465
 H        -0.814266         0.184472        -0.447530
 H        -0.227137        -0.715107        -1.634053
 H         1.456455         1.341279         1.561142
 H         1.887709        -0.400129         1.723343
 H         3.708109        -0.434418         2.008616
 H         3.552667         3.008283         1.158405
 H         4.702132         2.286074        -0.164205
 H         1.976770         1.304324        -2.391098
 H         3.670527        -0.452843        -1.347446
