19
Iteration:  3701charge 0 multiplicity 1
 C        -0.011117        -0.517861        -0.617800
 C         1.423788         0.185797        -0.389203
 C         1.855463         0.575647         1.079546
 C         3.264856         0.820701         0.649062
 O         4.389093         0.336839         1.547086
 C         3.606990         2.253279         0.293606
 O         2.405507         2.575681        -0.512884
 C         2.103840         1.254025        -1.246415
 C         3.001264         0.166243        -0.600722
 H         0.091311        -1.389455        -0.003502
 H        -0.932474         0.079796        -0.209767
 H        -0.262788        -0.756845        -1.681468
 H         1.302756         1.554959         1.386378
 H         1.683779        -0.330835         1.739793
 H         4.161865        -0.554324         1.965819
 H         3.729296         2.956344         1.075023
 H         4.469583         2.242410        -0.354986
 H         1.954170         1.364427        -2.339857
 H         3.529330        -0.530388        -1.198646
