19
Iteration:  1130
 C         0.080912        -0.484412        -0.514303
 C         1.338960         0.336826        -0.196354
 C         1.895264         0.648903         1.174876
 C         3.347120         0.826350         0.602716
 O         4.264703         0.319387         1.569963
 C         3.678833         2.255402         0.119843
 O         2.567477         2.548418        -0.677069
 C         2.001944         1.239518        -1.174649
 C         2.757962         0.005935        -0.605775
 H         0.100911        -1.364433         0.065557
 H        -0.772190         0.128003        -0.552593
 H         0.155712        -0.981488        -1.477135
 H         1.534783         1.582049         1.728432
 H         1.843172        -0.224561         1.843498
 H         4.862069        -0.295416         1.034910
 H         3.752441         2.753374         1.096722
 H         4.613922         2.345968        -0.383257
 H         1.703625         1.145954        -2.209815
 H         3.052845        -0.824265        -1.363863
