19
Iteration:  4405
 C         0.276116        -0.547170        -0.723646
 C         1.392549         0.259128        -0.294932
 C         1.732790         0.612990         1.259444
 C         3.287550         0.859443         0.746766
 O         4.342844         0.234213         1.455781
 C         3.604700         2.250374         0.254156
 O         2.448050         2.542812        -0.588658
 C         2.053676         1.259730        -1.164853
 C         2.866490         0.237499        -0.642651
 H         0.322307        -1.664733        -0.517804
 H        -0.688107        -0.144507        -0.329242
 H         0.174992        -0.336761        -1.835101
 H         1.227805         1.328428         1.962116
 H         1.773330        -0.400651         1.707613
 H         4.029666        -0.694798         1.660070
 H         3.669202         3.115787         0.915783
 H         4.517151         2.221649        -0.418502
 H         1.638391         1.531433        -2.181609
 H         3.492867        -0.482665        -1.104613
