19
Iteration:  1841
 C         0.081949        -0.392639        -0.625931
 C         1.470512         0.261082        -0.225490
 C         1.959655         0.785271         1.209047
 C         3.346660         0.791267         0.627487
 O         4.307983         0.307671         1.401784
 C         3.523290         2.186908         0.178369
 O         2.343327         2.468519        -0.537737
 C         2.053723         1.168119        -1.147132
 C         2.937266         0.043971        -0.623370
 H         0.051028        -1.422741        -0.079732
 H        -0.684567         0.404624        -0.423770
 H         0.228000        -0.668496        -1.737341
 H         1.630079         1.778606         1.420538
 H         1.766348         0.038174         1.969147
 H         4.075513        -0.539426         1.880430
 H         3.609550         2.866325         1.069735
 H         4.447658         2.470411        -0.466973
 H         1.787059         1.297291        -2.205992
 H         3.565764        -0.689535        -1.026297
