19
Iteration:   721charge 0 multiplicity 1
 C         0.122398        -0.410285        -0.315758
 C         1.356851         0.417261        -0.078402
 C         1.845517         0.912936         1.321383
 C         3.276031         0.828453         0.683641
 O         4.202553         0.132861         1.348695
 C         3.593114         2.204357         0.114965
 O         2.661432         2.401479        -0.931456
 C         2.101194         1.145916        -1.236669
 C         2.765985         0.026258        -0.559812
 H         0.216204        -1.476995         0.115998
 H        -0.894096        -0.084827        -0.099790
 H         0.110257        -0.566056        -1.455707
 H         1.478513         1.898719         1.588795
 H         1.568044         0.238250         2.116757
 H         5.051717         0.553626         1.400141
 H         3.686635         2.944528         0.968975
 H         4.679402         2.162640        -0.290762
 H         1.760013         1.234772        -2.304969
 H         3.161265        -0.877877        -0.938758
