19
Iteration:  2982charge 0 multiplicity 1
 C         0.108293        -0.454367        -0.565633
 C         1.359423         0.234216        -0.281924
 C         1.865787         0.593608         1.149032
 C         3.302356         0.750864         0.647595
 O         4.305580         0.446176         1.530062
 C         3.676728         2.158962         0.183136
 O         2.456626         2.486792        -0.546175
 C         2.119502         1.336768        -1.156524
 C         2.817557         0.058574        -0.786984
 H         0.186270        -1.442625         0.085631
 H        -0.788060        -0.056123        -0.150566
 H        -0.045725        -0.636479        -1.597513
 H         1.366884         1.421908         1.630114
 H         1.945034        -0.103662         1.986915
 H         4.038421        -0.328291         2.070355
 H         3.829402         2.949772         1.002703
 H         4.568777         2.120293        -0.491800
 H         1.597618         1.516513        -2.105417
 H         3.488063        -0.424280        -1.498691
