19
Iteration:  1904
 C         0.232442        -0.597555        -0.422038
 C         1.307815         0.356241        -0.161508
 C         1.837023         0.532197         1.247058
 C         3.233232         0.815746         0.705998
 O         4.297329         0.311516         1.324070
 C         3.558591         2.312614         0.297489
 O         2.723639         2.593312        -0.769840
 C         2.079875         1.334336        -1.252186
 C         2.711468         0.096594        -0.711522
 H         0.338109        -1.522294         0.116899
 H        -0.738900        -0.344093        -0.105284
 H         0.313225        -0.962417        -1.480818
 H         1.294331         1.219761         1.909457
 H         1.647570        -0.498626         1.665018
 H         3.995839        -0.479359         1.765152
 H         3.208141         2.876006         1.093773
 H         4.597702         2.340489         0.063901
 H         1.657075         1.506512        -2.259867
 H         3.212294        -0.716487        -1.148336
