19
Iteration:  3249charge 0 multiplicity 1
 C         0.148061        -0.490724        -0.682330
 C         1.415902         0.217767        -0.245615
 C         1.834603         0.711810         1.194841
 C         3.311377         0.790622         0.670718
 O         4.385348         0.283708         1.469453
 C         3.601468         2.240134         0.299679
 O         2.379727         2.523884        -0.574055
 C         2.047104         1.302499        -1.187629
 C         2.857652         0.075964        -0.582182
 H         0.104234        -1.613537        -0.428658
 H        -0.754246         0.016746        -0.272885
 H         0.169028        -0.547268        -1.831154
 H         1.486088         1.627218         1.616372
 H         1.693639        -0.198139         1.849575
 H         4.634903        -0.501846         0.936931
 H         3.510127         3.052161         1.156510
 H         4.501436         2.272818        -0.390208
 H         1.760731         1.334347        -2.257835
 H         3.434146        -0.454508        -1.364320
