19
Iteration:  1762
 C         0.214189        -0.510241        -0.579686
 C         1.302391         0.407932        -0.139425
 C         1.848822         0.608836         1.229761
 C         3.301288         0.758886         0.715449
 O         4.496493         0.277570         1.394276
 C         3.370794         2.283078         0.369670
 O         2.752914         2.504141        -0.942403
 C         1.985367         1.309285        -1.148362
 C         2.679202         0.107779        -0.642033
 H         0.227464        -1.518167        -0.028492
 H        -0.725010        -0.051109        -0.127000
 H         0.124932        -0.683403        -1.761187
 H         1.378876         1.275552         1.947567
 H         1.687842        -0.382075         1.734609
 H         4.275958        -0.509660         1.974596
 H         2.789861         2.851861         1.092176
 H         4.483530         2.476274         0.396634
 H         1.473831         1.339908        -2.154054
 H         3.261035        -0.800281        -1.046660
