19
Iteration:   660charge 0 multiplicity 1
 C        -0.003509        -0.283162        -0.353318
 C         1.348287         0.325544        -0.161652
 C         1.895397         0.802498         1.175799
 C         3.368342         0.756549         0.593571
 O         4.294533         0.446093         1.565899
 C         3.759014         2.090694         0.011744
 O         2.570643         2.380700        -0.769313
 C         1.987402         1.170646        -1.195879
 C         2.801346        -0.062983        -0.611778
 H        -0.078062        -1.231216         0.110057
 H        -0.684437         0.393391         0.206213
 H        -0.203408        -0.321899        -1.402856
 H         1.438657         1.759868         1.564029
 H         1.642423        -0.041066         1.860293
 H         4.370335        -0.497049         1.724608
 H         3.775678         2.850096         0.778555
 H         4.547800         2.041505        -0.767517
 H         1.608637         1.185734        -2.166595
 H         3.247134        -0.880751        -1.216810
