19
Iteration:  1516
 C         0.123844        -0.442530        -0.638506
 C         1.372420         0.207011        -0.224006
 C         1.836189         0.754898         1.137921
 C         3.339550         0.748144         0.731181
 O         4.376904         0.189753         1.514573
 C         3.550874         2.249638         0.240905
 O         2.368396         2.543851        -0.648124
 C         2.098470         1.259807        -1.190906
 C         2.906089         0.086626        -0.600000
 H         0.016662        -1.377132        -0.019757
 H        -0.781188         0.282973        -0.568955
 H         0.037065        -0.718994        -1.671844
 H         1.521385         1.725557         1.432127
 H         1.644189         0.129077         1.996464
 H         5.234656         0.221078         1.139180
 H         3.496842         2.924396         1.123676
 H         4.447909         2.299569        -0.379591
 H         1.773446         1.193768        -2.239669
 H         3.328726        -0.702793        -1.207997
