19
Iteration:  3391charge 0 multiplicity 1
 C         0.184430        -0.557037        -0.787886
 C         1.335745         0.253442        -0.216580
 C         1.815565         0.566929         1.267436
 C         3.326076         0.835447         0.681274
 O         4.395865         0.256789         1.519420
 C         3.641956         2.343316         0.207746
 O         2.440964         2.605618        -0.597361
 C         1.981102         1.287412        -1.167649
 C         2.840752         0.160234        -0.618731
 H         0.260489        -1.654783        -0.658868
 H        -0.740347        -0.338241        -0.351762
 H         0.181931        -0.657867        -1.890687
 H         1.422757         1.402324         1.901657
 H         1.962926        -0.433620         1.815636
 H         4.253629        -0.711740         1.579326
 H         3.587730         2.992593         1.003438
 H         4.582027         2.178146        -0.321666
 H         1.473205         1.397633        -2.102064
 H         3.495672        -0.553090        -1.169955
