19
Iteration:  2254
 C         0.229151        -0.469420        -0.732077
 C         1.359984         0.283567        -0.138594
 C         1.837896         0.709678         1.215603
 C         3.339562         0.791713         0.701628
 O         4.470986         0.374344         1.366564
 C         3.674388         2.189328         0.134029
 O         2.354070         2.506783        -0.513402
 C         2.014113         1.221435        -1.134181
 C         2.688318         0.038154        -0.558359
 H         0.086831        -1.525170        -0.518136
 H        -0.727059         0.026257        -0.575313
 H         0.421203        -0.395572        -1.910323
 H         1.476776         1.570816         1.787618
 H         1.759802        -0.151873         1.936228
 H         4.213266        -0.474742         1.849370
 H         3.848558         3.052822         0.867976
 H         4.512455         1.904502        -0.609663
 H         1.641863         1.379881        -2.179050
 H         3.221248        -0.569768        -1.209044
