19
Iteration:  3114
 C         0.079448        -0.415803        -0.640890
 C         1.454809         0.191747        -0.205678
 C         1.850000         0.576671         1.198094
 C         3.321712         0.797128         0.650284
 O         4.312097         0.260549         1.559132
 C         3.637966         2.210331         0.172584
 O         2.381333         2.549288        -0.620813
 C         2.030608         1.225231        -1.128917
 C         2.913949         0.146100        -0.696055
 H        -0.359483        -1.319744        -0.051106
 H        -0.600011         0.357060        -0.364426
 H         0.190847        -0.566694        -1.656774
 H         1.411390         1.515881         1.500690
 H         1.699819        -0.271093         1.817918
 H         5.171609         0.502016         1.133582
 H         3.573326         2.964842         0.926551
 H         4.492165         2.249956        -0.526667
 H         1.551534         1.515766        -2.028092
 H         3.684310        -0.605389        -1.011842
