19
Iteration:  4625
 C         0.222387        -0.565822        -0.532928
 C         1.353256         0.370980        -0.386589
 C         1.734786         0.641778         1.168347
 C         3.248778         0.713455         0.719810
 O         4.389592         0.228129         1.388723
 C         3.445656         2.250267         0.447144
 O         2.554213         2.635997        -0.728786
 C         2.147020         1.312189        -1.170042
 C         2.867802         0.103445        -0.636624
 H         0.562009        -1.498773        -0.068961
 H        -0.684768        -0.293113        -0.033619
 H         0.050414        -0.846799        -1.627856
 H         1.071874         1.529261         1.392586
 H         1.543703        -0.192879         1.795124
 H         4.240425        -0.724154         1.643946
 H         3.232780         2.880770         1.349458
 H         4.533147         2.418578         0.318230
 H         1.971372         1.478140        -2.286570
 H         3.523365        -0.400872        -1.418211
