19
Iteration:   762charge 0 multiplicity 1
 C         0.063182        -0.446893        -0.292335
 C         1.292212         0.414259        -0.108403
 C         1.789993         0.796381         1.261349
 C         3.276979         0.773248         0.661554
 O         4.332928         0.238088         1.412388
 C         3.613146         2.233323         0.142475
 O         2.730685         2.418209        -0.959040
 C         2.083916         1.222124        -1.210506
 C         2.767494         0.050290        -0.575583
 H        -0.130183        -1.165856         0.501728
 H        -0.722811         0.222478        -0.508621
 H         0.278511        -0.997890        -1.180262
 H         1.652396         1.774646         1.705371
 H         1.646220        -0.036561         1.954836
 H         4.172829        -0.753047         1.327534
 H         3.453323         3.083974         0.799957
 H         4.621441         2.519182        -0.175354
 H         1.507795         1.157268        -2.188041
 H         3.245052        -0.734201        -1.104332
