19
Iteration:  1178
 C         0.141484        -0.467118        -0.428626
 C         1.388140         0.328658        -0.171830
 C         1.782185         0.723887         1.250478
 C         3.247967         0.808715         0.733928
 O         4.360518         0.066240         1.242275
 C         3.416551         2.352568         0.337046
 O         2.632278         2.531744        -0.920922
 C         2.144444         1.233307        -1.194137
 C         2.856210         0.095919        -0.599543
 H         0.142922        -1.325522         0.281632
 H        -0.735940         0.276865        -0.319423
 H         0.090585        -0.984040        -1.384723
 H         1.350102         1.613140         1.698619
 H         1.643070        -0.154299         1.940450
 H         4.421045         0.058948         2.189867
 H         3.008842         3.001795         1.155775
 H         4.515593         2.580840         0.173525
 H         1.799774         1.152378        -2.242616
 H         3.539536        -0.620159        -0.846185
