19
Iteration:  2021
 C         0.226630        -0.550953        -0.532421
 C         1.324960         0.353144        -0.127961
 C         1.873236         0.575480         1.181844
 C         3.292717         0.850130         0.585289
 O         4.341317         0.266908         1.336361
 C         3.554370         2.274165         0.365877
 O         2.581658         2.515033        -0.743436
 C         2.046725         1.321434        -1.128713
 C         2.764921         0.138139        -0.688355
 H         0.071672        -1.334195         0.268320
 H        -0.805814        -0.069670        -0.477134
 H         0.286700        -1.087197        -1.487151
 H         1.341374         1.331842         1.797440
 H         1.952364        -0.309221         1.759407
 H         4.162240        -0.400934         1.975239
 H         3.300064         2.886580         1.237121
 H         4.496775         2.320280        -0.089094
 H         1.539277         1.282880        -2.131295
 H         3.269207        -0.577286        -1.278421
