19
Iteration:   951charge 0 multiplicity 1
 C         0.045030        -0.329745        -0.552019
 C         1.381560         0.261431        -0.141844
 C         1.792441         0.887032         1.208737
 C         3.418886         0.847970         0.637468
 O         4.363273         0.285729         1.452176
 C         3.679684         2.247286         0.056366
 O         2.440282         2.377038        -0.654809
 C         2.066968         1.118995        -1.124559
 C         2.854987        -0.009138        -0.581156
 H        -0.233154        -1.212618         0.135307
 H        -0.704874         0.373590        -0.274790
 H        -0.082119        -0.653511        -1.674236
 H         1.349344         1.892692         1.569501
 H         1.702045         0.038806         1.999680
 H         4.068064        -0.677907         1.597086
 H         3.955197         2.999750         0.816315
 H         4.481289         2.174939        -0.719795
 H         1.687067         1.089447        -2.184264
 H         3.427706        -0.832707        -1.117545
