19
Iteration:  4330
 C         0.233698        -0.527392        -0.620768
 C         1.468851         0.253909        -0.217009
 C         1.728136         0.553164         1.167853
 C         3.249143         0.711758         0.740562
 O         4.356640         0.286746         1.361674
 C         3.480412         2.210970         0.380310
 O         2.499575         2.635448        -0.673165
 C         2.085045         1.371136        -1.207150
 C         2.900589         0.131777        -0.641120
 H         0.056352        -1.329975         0.228212
 H        -0.573415         0.164870        -0.657446
 H         0.168215        -0.994840        -1.663020
 H         1.175489         1.352859         1.820803
 H         1.652518        -0.384782         1.732757
 H         4.291768        -0.620008         1.667587
 H         3.242879         2.932145         1.156592
 H         4.456695         2.479353        -0.025158
 H         1.844574         1.619690        -2.283963
 H         3.615937        -0.349394        -1.289016
