19
Iteration:  1689
 C         0.072542        -0.506138        -0.572142
 C         1.391484         0.226328        -0.325399
 C         1.918034         0.687533         1.101561
 C         3.333893         0.744048         0.635261
 O         4.302136         0.242991         1.679149
 C         3.636876         2.196653         0.178058
 O         2.405877         2.488088        -0.531483
 C         2.026851         1.353126        -1.213760
 C         2.867707         0.119557        -0.768594
 H         0.002802        -1.313708         0.146193
 H        -0.762691         0.132388        -0.339761
 H         0.052438        -0.893373        -1.526773
 H         1.488820         1.574563         1.719868
 H         1.823847        -0.032993         1.916627
 H         5.101483         0.877847         1.601750
 H         3.832178         3.005815         0.929787
 H         4.495295         2.115575        -0.550208
 H         1.716079         1.587734        -2.252050
 H         3.323557        -0.530002        -1.481798
