19
Iteration:  1636charge 0 multiplicity 1
 C         0.208950        -0.552308        -0.613859
 C         1.338059         0.280113        -0.182597
 C         1.803262         0.640607         1.241135
 C         3.267562         0.833903         0.741533
 O         4.358623         0.102924         1.471713
 C         3.506873         2.333037         0.269264
 O         2.575824         2.591437        -0.807308
 C         1.999611         1.245544        -1.204478
 C         2.896654         0.244101        -0.571975
 H         0.111922        -1.552780        -0.112230
 H        -0.767718         0.090149        -0.426774
 H         0.211350        -0.685595        -1.689509
 H         1.309211         1.451318         1.901023
 H         1.618416        -0.292071         1.843814
 H         4.812746        -0.269711         0.637203
 H         3.417485         2.973038         1.221402
 H         4.565388         2.408267        -0.037057
 H         1.528812         1.142785        -2.205459
 H         3.369915        -0.588298        -0.972193
