19
Iteration:  2702
 C         0.098685        -0.320047        -0.493338
 C         1.414300         0.256124        -0.273773
 C         1.787859         0.662753         1.074788
 C         3.342784         0.717238         0.700637
 O         4.456203         0.276533         1.492581
 C         3.504161         2.310454         0.203222
 O         2.358328         2.454377        -0.595397
 C         2.094452         1.141208        -1.266375
 C         2.959980         0.091713        -0.653433
 H         0.075861        -1.218459         0.127165
 H        -0.590148         0.412276         0.126080
 H        -0.266828        -0.554091        -1.518199
 H         1.452243         1.628617         1.592106
 H         1.497327        -0.058451         1.845489
 H         4.051096        -0.543683         1.923146
 H         3.451466         3.048114         1.051154
 H         4.581840         2.549074        -0.314646
 H         2.032575         1.134335        -2.397485
 H         3.635783        -0.328017        -1.354537
