19
Iteration:   374charge 0 multiplicity 1
 C        -0.026228        -0.252081        -0.335252
 C         1.333069         0.403700        -0.090031
 C         1.899456         0.869552         1.290239
 C         3.313374         0.785647         0.666545
 O         4.329319         0.304960         1.481613
 C         3.756873         2.022218        -0.125941
 O         2.599591         2.396352        -0.804910
 C         2.036627         1.086324        -1.223483
 C         2.712141        -0.041143        -0.566550
 H        -0.256487        -1.015808         0.473803
 H        -0.942699         0.500549        -0.331852
 H        -0.016705        -0.779229        -1.352496
 H         1.422111         1.793502         1.724558
 H         1.824218         0.114881         2.074915
 H         5.003814         0.979810         1.507172
 H         3.965361         2.787895         0.637425
 H         4.619879         1.717945        -0.795855
 H         1.568953         1.229666        -2.139017
 H         3.025254        -0.965733        -1.077034
