19
Iteration:  1614
 C         0.222835        -0.498658        -0.603099
 C         1.380573         0.344605        -0.166956
 C         1.836944         0.703013         1.304843
 C         3.298545         0.864954         0.704302
 O         4.282674         0.105944         1.310629
 C         3.378305         2.373662         0.368880
 O         2.611517         2.491034        -0.795731
 C         2.186592         1.261913        -1.159392
 C         2.818821         0.035659        -0.580859
 H         0.414652        -1.548184        -0.198373
 H        -0.895839        -0.146583        -0.311910
 H         0.219463        -0.567351        -1.685505
 H         1.277435         1.598886         1.746910
 H         1.476970        -0.003016         2.085026
 H         4.834328        -0.064287         0.582085
 H         2.900248         3.015228         1.237541
 H         4.336865         2.883747         0.180685
 H         1.751100         1.073093        -2.178462
 H         3.290141        -0.735404        -1.173125
