19
Iteration:  2578
 C         0.087024        -0.512716        -0.470417
 C         1.380974         0.252959        -0.224567
 C         1.882065         0.652786         1.144062
 C         3.339781         0.796690         0.678649
 O         4.388610         0.189468         1.460936
 C         3.525402         2.316045         0.259855
 O         2.456215         2.547639        -0.705446
 C         2.089507         1.246584        -1.198004
 C         2.922764         0.204502        -0.723412
 H        -0.053462        -1.326012         0.222730
 H        -0.743231         0.252268        -0.210313
 H        -0.004257        -0.864885        -1.479592
 H         1.227008         1.407440         1.619580
 H         1.790048        -0.167075         1.915437
 H         3.872257        -0.601151         1.759791
 H         3.291683         2.834104         1.216787
 H         4.543292         2.477760        -0.222446
 H         1.709258         1.274732        -2.191489
 H         3.506350        -0.476537        -1.379674
