19
Iteration:  1594charge 0 multiplicity 1
 C         0.203804        -0.505092        -0.563104
 C         1.392606         0.357117        -0.197510
 C         1.822935         0.663617         1.227106
 C         3.241614         0.768174         0.690869
 O         4.314742         0.217324         1.411608
 C         3.424735         2.252268         0.451541
 O         2.635823         2.520978        -0.823904
 C         2.036600         1.267202        -1.238400
 C         2.842873         0.100777        -0.659056
 H         0.249665        -1.546643        -0.151963
 H        -0.757111        -0.018384        -0.065674
 H         0.067330        -0.500524        -1.668049
 H         1.403800         1.385074         1.853864
 H         1.857842        -0.143521         1.959456
 H         5.175999         0.155838         0.948126
 H         3.050782         3.093851         1.060657
 H         4.473767         2.500781         0.288112
 H         1.749413         1.250807        -2.314868
 H         3.315173        -0.756602        -0.918311
