19
Iteration:  2609
 C         0.265837        -0.583644        -0.527494
 C         1.307544         0.388614        -0.134381
 C         1.814228         0.692761         1.271281
 C         3.249624         0.812375         0.680938
 O         4.353580         0.202514         1.230345
 C         3.426022         2.283953         0.362260
 O         2.690584         2.541639        -0.796869
 C         2.104045         1.267109        -1.162636
 C         2.772660         0.146929        -0.667209
 H         0.304075        -1.516274         0.168677
 H        -0.843482        -0.210535        -0.422573
 H         0.423573        -1.092531        -1.525657
 H         1.436107         1.525537         1.816901
 H         1.608187        -0.080824         2.063067
 H         4.145637        -0.523878         1.821525
 H         3.095829         2.889302         1.236224
 H         4.476253         2.607910         0.156866
 H         1.555896         1.259084        -2.086668
 H         3.199236        -0.769683        -1.115307
