19
Iteration:  3964
 C         0.116814        -0.539569        -0.562924
 C         1.370037         0.300952        -0.367951
 C         1.835285         0.615434         1.095968
 C         3.371241         0.805945         0.663896
 O         4.347540         0.282205         1.573986
 C         3.508140         2.296037         0.329762
 O         2.478622         2.521750        -0.576836
 C         2.143880         1.282702        -1.283031
 C         2.896909         0.111358        -0.681262
 H         0.180720        -1.416891         0.031742
 H        -0.848142         0.020141        -0.253786
 H        -0.062885        -0.783045        -1.599557
 H         1.328688         1.379847         1.651434
 H         1.794801        -0.352413         1.660083
 H         3.786032        -0.455113         1.891103
 H         3.430439         3.065110         1.083086
 H         4.483697         2.580806        -0.223130
 H         1.891276         1.454412        -2.312457
 H         3.274322        -0.742486        -1.275962
