19
Iteration:  1880
 C         0.154909        -0.621962        -0.609891
 C         1.286146         0.345151        -0.164140
 C         1.809866         0.574407         1.295723
 C         3.246840         0.784018         0.768908
 O         4.436256         0.268177         1.381989
 C         3.613690         2.243799         0.230866
 O         2.642767         2.566233        -0.843124
 C         1.946764         1.394095        -1.113900
 C         2.799889         0.212537        -0.664218
 H         0.179634        -1.426848         0.047649
 H        -0.888837        -0.403640        -0.479751
 H         0.384701        -1.093999        -1.539435
 H         1.356027         1.378812         1.950890
 H         1.700443        -0.418558         1.857010
 H         4.110858        -0.294945         2.065922
 H         3.449616         2.995951         0.959363
 H         4.554936         2.037276        -0.198429
 H         1.620981         1.389555        -2.144701
 H         3.355011        -0.601907        -1.132042
