19
Iteration:  2822charge 0 multiplicity 1
 C         0.039258        -0.455857        -0.469267
 C         1.509431         0.114608        -0.273990
 C         1.783965         0.749584         1.112001
 C         3.377137         0.805129         0.642230
 O         4.357897         0.198237         1.517733
 C         3.611894         2.301924         0.247203
 O         2.383314         2.512415        -0.641842
 C         2.053158         1.250388        -1.160938
 C         2.974510         0.154350        -0.726954
 H        -0.023549        -1.500482        -0.155788
 H        -0.710556         0.252424         0.110566
 H        -0.268897        -0.482438        -1.555288
 H         1.215346         1.668098         1.319458
 H         1.551205         0.083594         1.916642
 H         4.032634        -0.645525         1.797538
 H         3.640957         3.122422         0.949749
 H         4.568837         2.414356        -0.274226
 H         1.891923         1.316615        -2.227071
 H         3.433941        -0.560919        -1.399427
