19
Iteration:  3674charge 0 multiplicity 1
 C         0.257398        -0.363298        -0.724505
 C         1.464501         0.260115        -0.200551
 C         1.815239         0.579229         1.235110
 C         3.262005         0.802283         0.617073
 O         4.401426         0.315241         1.491132
 C         3.535900         2.218955         0.294344
 O         2.402597         2.475142        -0.624158
 C         2.041897         1.262494        -1.163781
 C         2.875403         0.111942        -0.668297
 H         0.125202        -1.414078        -0.238600
 H        -0.645122         0.141678        -0.544790
 H         0.416830        -0.645278        -1.797273
 H         1.336954         1.459646         1.508263
 H         1.676776        -0.245145         1.897326
 H         4.055025        -0.305597         2.177265
 H         3.314418         2.905186         1.199726
 H         4.489258         2.370336        -0.299675
 H         1.498133         1.359694        -2.102415
 H         3.223298        -0.647080        -1.403813
