19
Iteration:  1050charge 0 multiplicity 1
 C         0.126966        -0.472588        -0.419573
 C         1.366585         0.388856        -0.192314
 C         1.793406         0.810104         1.202705
 C         3.292858         0.804565         0.692206
 O         4.432138         0.181652         1.392497
 C         3.479477         2.292907         0.349067
 O         2.655485         2.438889        -0.936836
 C         2.048181         1.214736        -1.213701
 C         2.828496         0.070143        -0.591304
 H         0.048525        -1.412808         0.093138
 H        -0.680317         0.027748         0.043684
 H        -0.156095        -0.451149        -1.483688
 H         1.365196         1.675262         1.736907
 H         1.758143        -0.025518         1.942207
 H         4.095999        -0.745824         1.487856
 H         3.085571         2.989417         1.054395
 H         4.496764         2.503134         0.122050
 H         1.604682         1.084498        -2.221147
 H         3.140567        -0.793566        -1.066055
