19
Iteration:  1411
 C         0.084382        -0.406794        -0.566557
 C         1.384950         0.220065        -0.253074
 C         1.822874         0.656277         1.195378
 C         3.321917         0.851499         0.745473
 O         4.305930         0.192891         1.474519
 C         3.572346         2.214467         0.248917
 O         2.419313         2.479130        -0.646892
 C         2.139362         1.206375        -1.246610
 C         2.944324         0.158014        -0.681556
 H        -0.157260        -1.430935        -0.259638
 H        -0.578011         0.204734         0.039036
 H        -0.227777        -0.332343        -1.667272
 H         1.219596         1.581510         1.513013
 H         1.675660        -0.149526         2.024634
 H         5.047625         0.777413         1.449921
 H         3.660645         2.956769         1.034668
 H         4.509896         2.172010        -0.321152
 H         1.798600         1.280231        -2.327676
 H         3.580037        -0.537504        -1.091464
