19
Iteration:  4978charge 0 multiplicity 1
 C         0.138788        -0.580272        -0.582606
 C         1.367232         0.317541        -0.365229
 C         1.768552         0.673862         1.119922
 C         3.304898         0.732387         0.713517
 O         4.405918         0.197943         1.522033
 C         3.523496         2.273358         0.267621
 O         2.446162         2.569162        -0.580866
 C         2.130208         1.354780        -1.247984
 C         2.904804         0.161577        -0.681022
 H         0.363790        -1.611141        -0.098152
 H        -0.817222        -0.206716        -0.261620
 H         0.233418        -0.768009        -1.633172
 H         1.297533         1.541857         1.660208
 H         1.571681        -0.289522         1.527634
 H         3.969249        -0.245608         2.326175
 H         3.451287         2.894704         1.181957
 H         4.553389         2.308685        -0.043370
 H         1.790824         1.402356        -2.295783
 H         3.676762        -0.410709        -1.177320
