19
Iteration:   644charge 0 multiplicity 1
 C         0.077943        -0.229567        -0.330127
 C         1.377406         0.292058        -0.141415
 C         1.846424         0.846320         1.215989
 C         3.247639         0.803176         0.682937
 O         4.365417         0.305024         1.496228
 C         3.589227         2.122742         0.077781
 O         2.580073         2.410946        -0.889351
 C         2.052891         1.129859        -1.206434
 C         2.787324        -0.029930        -0.573297
 H        -0.030924        -1.252725         0.180027
 H        -0.677871         0.516506        -0.054558
 H        -0.103086        -0.487382        -1.432039
 H         1.507491         1.869819         1.415220
 H         1.865194         0.148638         2.063226
 H         4.827814        -0.421945         1.017680
 H         3.682565         2.909030         0.867328
 H         4.586417         2.028345        -0.250259
 H         1.705955         1.072782        -2.314082
 H         3.140543        -0.972489        -0.972205
