19
Iteration:  1369charge 0 multiplicity 1
 C         0.124773        -0.391933        -0.636551
 C         1.418943         0.229399        -0.134681
 C         1.883466         0.689571         1.238082
 C         3.300934         0.793890         0.624754
 O         4.370794         0.264683         1.432425
 C         3.526826         2.253196         0.215487
 O         2.450337         2.499065        -0.625282
 C         2.074590         1.219535        -1.204423
 C         2.855642         0.066529        -0.652683
 H        -0.211573        -1.378366        -0.269931
 H        -0.734211         0.226716        -0.518068
 H         0.379062        -0.593761        -1.733157
 H         1.592413         1.566499         1.722247
 H         2.038145        -0.144562         1.839164
 H         4.046071         0.111014         2.369587
 H         3.520464         3.006916         0.989486
 H         4.456432         2.367656        -0.354839
 H         1.757280         1.154462        -2.269414
 H         3.175514        -0.776976        -1.151363
