19
Iteration:   381
 C         0.017095        -0.221608        -0.349680
 C         1.328633         0.354944        -0.079326
 C         1.890601         0.878533         1.305757
 C         3.278971         0.828420         0.679166
 O         4.330168         0.298752         1.469657
 C         3.717399         1.959678        -0.079094
 O         2.591348         2.417206        -0.786962
 C         1.978465         1.111969        -1.248078
 C         2.772596        -0.050898        -0.568968
 H        -0.347770        -0.923582         0.388898
 H        -0.656637         0.567796        -0.262616
 H        -0.025496        -0.748046        -1.273085
 H         1.593398         1.905579         1.444768
 H         1.851942         0.144955         2.109024
 H         5.149301         0.795037         1.312902
 H         4.017030         2.851883         0.477774
 H         4.443533         1.676354        -0.806870
 H         1.647993         0.986566        -2.307672
 H         3.152920        -0.968499        -0.983918
