19
Iteration:    80
 C        -0.169251        -0.219178        -0.257525
 C         1.254248         0.386514        -0.035115
 C         1.980975         1.020416         1.266074
 C         3.387938         0.883187         0.644330
 O         4.424948         0.204189         1.446583
 C         3.743202         2.190532        -0.105480
 O         2.609362         2.318837        -0.957391
 C         2.112670         0.996874        -1.228364
 C         2.673030        -0.091565        -0.435396
 H        -0.426569        -1.009938         0.415318
 H        -0.908135         0.609316        -0.107693
 H        -0.296493        -0.555743        -1.277122
 H         1.621321         1.912749         1.701163
 H         1.995482         0.187757         1.955099
 H         3.998006        -0.652422         1.563061
 H         3.614627         3.092276         0.544053
 H         4.666119         2.295931        -0.634283
 H         1.758159         0.874937        -2.382911
 H         3.024563        -1.047584        -0.855057
