19
Iteration:   681
 C        -0.153789        -0.390782        -0.364490
 C         1.303683         0.313041        -0.151452
 C         1.935424         0.743286         1.186775
 C         3.380527         0.799140         0.664183
 O         4.381072         0.346371         1.622341
 C         3.771695         2.101662        -0.073522
 O         2.599629         2.505726        -0.786035
 C         2.049308         1.216553        -1.233863
 C         2.762339        -0.002937        -0.660220
 H        -0.104936        -1.381294         0.036063
 H        -0.990320         0.035842         0.218050
 H        -0.390851        -0.452716        -1.439190
 H         1.476130         1.702784         1.648449
 H         1.871269        -0.032384         2.013751
 H         3.784890         0.261797         2.435758
 H         3.875030         3.013001         0.464805
 H         4.473614         1.744324        -0.779349
 H         1.860733         1.029782        -2.234326
 H         3.251570        -0.827974        -1.219263
