19
Iteration:  4822
 C         0.238289        -0.481786        -0.664293
 C         1.389783         0.249719        -0.194733
 C         1.794954         0.586722         1.189933
 C         3.229115         0.746059         0.639608
 O         4.350060         0.316958         1.404321
 C         3.517164         2.251161         0.345544
 O         2.523183         2.587610        -0.638998
 C         2.130547         1.310362        -1.145751
 C         2.835419         0.113720        -0.681777
 H         0.217065        -1.441448        -0.132947
 H        -0.777873         0.020296        -0.669974
 H         0.317781        -0.769978        -1.779363
 H         1.287741         1.491372         1.674058
 H         1.619651        -0.278809         1.860372
 H         3.981588        -0.430102         1.949205
 H         3.482322         2.841199         1.286582
 H         4.511833         2.215864        -0.118395
 H         1.884893         1.463021        -2.185459
 H         3.262048        -0.803424        -1.055872
