19
Iteration:  1978
 C         0.116004        -0.347304        -0.633825
 C         1.348788         0.223360        -0.230040
 C         1.876294         0.587972         1.229167
 C         3.313441         0.753135         0.683374
 O         4.429228         0.430847         1.467516
 C         3.618473         2.184746         0.132738
 O         2.386902         2.489880        -0.596705
 C         2.006970         1.268338        -1.131802
 C         2.853470         0.063869        -0.612667
 H         0.052890        -1.454091        -0.530357
 H        -0.839493         0.071204        -0.214804
 H         0.141141        -0.397435        -1.730020
 H         1.348809         1.379463         1.836553
 H         1.982248        -0.324330         1.811315
 H         4.421829        -0.526450         1.671229
 H         3.832637         2.972221         0.942767
 H         4.488608         2.140175        -0.607881
 H         1.803807         1.249564        -2.237980
 H         3.482963        -0.560257        -1.172336
