19
Iteration:  1278
 C         0.150581        -0.447741        -0.551078
 C         1.412512         0.228672        -0.212102
 C         1.838700         0.782214         1.249876
 C         3.314989         0.767401         0.662227
 O         4.394431         0.092933         1.431405
 C         3.554083         2.301047         0.268664
 O         2.436784         2.537768        -0.769254
 C         2.081879         1.218830        -1.228839
 C         2.837824         0.135358        -0.631602
 H         0.091136        -1.457697        -0.106879
 H        -0.713246         0.036354        -0.055331
 H         0.154068        -0.502074        -1.639436
 H         1.420849         1.760514         1.418117
 H         1.769907        -0.016611         2.009238
 H         4.194413         0.361859         2.344839
 H         3.418588         2.982035         1.121059
 H         4.558798         2.382497        -0.113780
 H         1.505731         1.299055        -2.125860
 H         3.395003        -0.691033        -1.203667
