19
Iteration:  1822
 C         0.056264        -0.363339        -0.534135
 C         1.419091         0.173097        -0.224266
 C         1.786788         0.685374         1.125688
 C         3.361772         0.829090         0.699613
 O         4.448703         0.274547         1.536757
 C         3.575350         2.263913         0.194968
 O         2.339431         2.461084        -0.623506
 C         2.103369         1.200311        -1.186329
 C         2.949653         0.106682        -0.715823
 H        -0.114030        -1.290793         0.037579
 H        -0.675171         0.455348        -0.277715
 H        -0.239865        -0.452859        -1.558383
 H         1.139709         1.527541         1.497865
 H         1.653549        -0.132351         1.841312
 H         4.336790        -0.738513         1.581769
 H         3.700178         3.196464         0.827694
 H         4.519068         2.412025        -0.321079
 H         1.874093         1.199662        -2.270229
 H         3.549330        -0.606992        -1.343729
