19
Iteration:  3031charge 0 multiplicity 1
 C         0.233610        -0.559025        -0.615900
 C         1.363264         0.272940        -0.131217
 C         1.834613         0.720024         1.355185
 C         3.255167         0.904396         0.732764
 O         4.284548         0.144349         1.226967
 C         3.488543         2.356266         0.316499
 O         2.624998         2.537969        -0.780705
 C         2.042031         1.182622        -1.186222
 C         2.865812         0.139560        -0.627404
 H         0.350430        -1.584022        -0.320526
 H        -0.819450        -0.166342        -0.259166
 H         0.138722        -0.528163        -1.776808
 H         1.390795         1.552818         1.990989
 H         1.670035        -0.210179         2.038742
 H         4.021032        -0.052370         2.129911
 H         3.397435         3.058245         1.162846
 H         4.603819         2.411591         0.046124
 H         1.803682         1.214985        -2.247525
 H         3.276701        -0.730397        -1.104069
