19
Iteration:  3894
 C         0.179984        -0.568811        -0.744293
 C         1.300779         0.414368        -0.209481
 C         1.848224         0.685481         1.253749
 C         3.247093         0.782459         0.702639
 O         4.395498         0.330203         1.394711
 C         3.423914         2.257367         0.324158
 O         2.573987         2.498482        -0.704526
 C         2.131049         1.270293        -1.108709
 C         2.846984         0.069313        -0.617364
 H         0.326699        -1.576591        -0.240282
 H        -0.814991        -0.310011        -0.609758
 H         0.245451        -0.684165        -1.878870
 H         1.384080         1.573144         1.799415
 H         1.766747        -0.266013         1.842145
 H         4.349050        -0.647989         1.583894
 H         3.154113         2.884989         1.221280
 H         4.458470         2.411752         0.220924
 H         1.964444         1.343133        -2.239567
 H         3.299052        -0.818605        -1.014852
