19
Iteration:   339charge 0 multiplicity 1
 C        -0.039999        -0.349916        -0.207883
 C         1.283595         0.380533        -0.043572
 C         1.924716         0.898622         1.319742
 C         3.316609         0.795110         0.662380
 O         4.335046         0.186795         1.428374
 C         3.671452         2.127044         0.017683
 O         2.791083         2.408170        -1.093563
 C         2.000376         1.159157        -1.250019
 C         2.684383         0.059776        -0.590181
 H        -0.004219        -1.252662         0.485813
 H        -0.952190         0.314987         0.003366
 H        -0.156343        -0.810338        -1.234719
 H         1.621382         1.888958         1.706319
 H         1.789580         0.044868         1.996251
 H         4.139013         0.299074         2.359598
 H         3.625063         2.923021         0.769817
 H         4.748827         2.052296        -0.224916
 H         1.388087         1.079200        -2.137390
 H         3.078701        -0.824696        -1.062467
