19
Iteration:   726
 C         0.132388        -0.457576        -0.317498
 C         1.337105         0.410695        -0.108616
 C         1.854246         0.936584         1.284056
 C         3.269957         0.822083         0.698104
 O         4.224977         0.090856         1.354419
 C         3.602340         2.249295         0.142640
 O         2.675621         2.401255        -0.951849
 C         2.096448         1.163030        -1.259573
 C         2.758158         0.052773        -0.499756
 H         0.020719        -1.417677         0.134196
 H        -0.906153        -0.063090        -0.138856
 H         0.121892        -0.584448        -1.384684
 H         1.651299         1.992651         1.702960
 H         1.567502         0.293595         2.162421
 H         5.134418         0.473159         1.138517
 H         3.375116         2.879302         1.015516
 H         4.548369         2.184763        -0.330021
 H         1.684726         1.262015        -2.234796
 H         3.163407        -0.942660        -0.850999
