19
Iteration:  1105
 C         0.102433        -0.416869        -0.536966
 C         1.403940         0.300449        -0.199619
 C         1.873047         0.647288         1.232368
 C         3.285465         0.788166         0.674296
 O         4.302995         0.244587         1.651837
 C         3.686075         2.102101        -0.008794
 O         2.498934         2.478851        -0.654686
 C         1.902733         1.330322        -1.198250
 C         2.868919         0.114411        -0.675027
 H         0.160160        -1.427229        -0.207247
 H        -0.702262         0.209569        -0.357702
 H         0.039677        -0.642579        -1.643790
 H         1.492761         1.597696         1.601062
 H         1.960396        -0.057205         2.079512
 H         4.866651         1.014306         1.584827
 H         4.091088         2.890116         0.583194
 H         4.419542         1.792854        -0.723329
 H         1.363785         1.360696        -2.131602
 H         3.378104        -0.626465        -1.247132
