19
Iteration:  2427charge 0 multiplicity 1
 C         0.172238        -0.584879        -0.492947
 C         1.405296         0.275265        -0.273672
 C         1.850765         0.607401         1.175871
 C         3.299996         0.743398         0.625417
 O         4.303095         0.357438         1.437551
 C         3.673858         2.168799         0.227936
 O         2.470044         2.587116        -0.564628
 C         1.967627         1.354300        -1.162723
 C         2.856241         0.157385        -0.744890
 H         0.207868        -1.528571         0.293382
 H        -0.801081         0.053985        -0.326185
 H         0.108830        -1.009572        -1.532522
 H         1.430909         1.592149         1.635614
 H         1.677778        -0.232532         1.910690
 H         4.100916        -0.566868         1.661752
 H         3.747839         2.905457         1.083202
 H         4.613584         2.191389        -0.362452
 H         1.728281         1.348809        -2.266867
 H         3.479723        -0.434054        -1.385107
