19
Iteration:  3680
 C         0.223943        -0.433467        -0.691016
 C         1.470702         0.260124        -0.228506
 C         1.777504         0.597278         1.181764
 C         3.246155         0.789892         0.696398
 O         4.423125         0.320647         1.500736
 C         3.520618         2.227691         0.244623
 O         2.383800         2.481013        -0.590517
 C         2.086060         1.288000        -1.147545
 C         2.907334         0.076345        -0.729591
 H         0.031019        -1.320192        -0.159593
 H        -0.663548         0.306643        -0.540976
 H         0.238272        -0.460197        -1.783208
 H         1.350878         1.597494         1.623992
 H         1.677467        -0.247218         1.922561
 H         4.001613        -0.254576         2.115986
 H         3.552204         2.779991         1.156458
 H         4.464246         2.372687        -0.262019
 H         1.623475         1.338100        -2.150767
 H         3.407726        -0.527594        -1.458979
