19
Iteration:  2066
 C         0.196636        -0.564163        -0.403398
 C         1.401439         0.292491        -0.258784
 C         1.822217         0.692816         1.124083
 C         3.317582         0.852177         0.684749
 O         4.356795         0.125783         1.351787
 C         3.507121         2.315481         0.345932
 O         2.496715         2.579650        -0.701633
 C         2.064218         1.270827        -1.154487
 C         2.887202         0.140921        -0.686969
 H         0.225043        -1.364118         0.352541
 H        -0.751378         0.003557        -0.200918
 H         0.174914        -0.813021        -1.499521
 H         1.412729         1.643098         1.508812
 H         1.602392        -0.034701         1.877462
 H         4.192523        -0.816911         1.181805
 H         3.069975         2.894623         1.150092
 H         4.442327         2.517112        -0.035849
 H         1.678570         1.368973        -2.211163
 H         3.324597        -0.605931        -1.404424
