19
Iteration:    65
 C         0.015036        -0.145214        -0.156491
 C         1.352913         0.462919         0.002880
 C         1.911900         0.916732         1.303924
 C         3.302553         0.775842         0.614210
 O         4.283548         0.249419         1.413948
 C         3.657251         2.159697        -0.014445
 O         2.685421         2.290686        -1.098024
 C         2.014976         1.053749        -1.209628
 C         2.742952        -0.055870        -0.520444
 H        -0.116184        -0.946406         0.603895
 H        -0.763824         0.604124        -0.288089
 H        -0.026474        -0.759917        -1.085265
 H         1.673695         2.019393         1.628429
 H         1.713486         0.281142         2.209759
 H         4.436539        -0.689369         1.250137
 H         3.663550         2.966429         0.699691
 H         4.703838         2.092005        -0.425978
 H         1.489123         0.868741        -2.121868
 H         3.134543        -1.012770        -0.842117
