19
Iteration:  1959charge 0 multiplicity 1
 C         0.058783        -0.409510        -0.614947
 C         1.449070         0.244626        -0.191534
 C         1.830680         0.636671         1.198946
 C         3.360631         0.840895         0.700458
 O         4.364671         0.328476         1.423889
 C         3.548762         2.297094         0.197403
 O         2.387288         2.459647        -0.589649
 C         2.125596         1.142019        -1.160578
 C         2.930904         0.085844        -0.668065
 H        -0.046359        -1.384493        -0.314110
 H        -0.370485         0.235919         0.095727
 H        -0.364258        -0.157612        -1.645884
 H         1.183930         1.471378         1.521387
 H         1.859899        -0.257711         1.902238
 H         4.232441        -0.578920         1.240486
 H         3.797769         3.073618         0.887046
 H         4.489957         2.461770        -0.403877
 H         1.569139         1.368567        -2.098000
 H         3.344549        -0.811140        -1.130809
