19
Iteration:  3635
 C         0.164063        -0.617179        -0.705518
 C         1.287471         0.298454        -0.209354
 C         1.755196         0.493828         1.294627
 C         3.330827         0.768909         0.776154
 O         4.424577         0.274201         1.377304
 C         3.483978         2.356761         0.370410
 O         2.657835         2.590768        -0.802424
 C         2.055522         1.336982        -1.168608
 C         2.780668         0.215059        -0.610544
 H         0.228721        -1.367881         0.025148
 H        -0.895505        -0.204824        -0.720417
 H         0.300668        -0.899682        -1.766094
 H         1.133826         1.269883         1.903419
 H         1.751837        -0.463083         1.919259
 H         4.256712        -0.658144         1.501406
 H         3.218931         3.063133         1.109105
 H         4.530933         2.519348         0.184664
 H         1.797657         1.225133        -2.203703
 H         3.450326        -0.463158        -1.183515
