19
Iteration:  4198
 C         0.332203        -0.609643        -0.611153
 C         1.473670         0.332562        -0.181543
 C         1.815606         0.604845         1.257349
 C         3.196262         0.795283         0.680921
 O         4.218146         0.156306         1.338757
 C         3.471420         2.290375         0.428775
 O         2.577649         2.614422        -0.781435
 C         2.002910         1.357124        -1.160546
 C         2.930068         0.177422        -0.628235
 H         0.236602        -1.463957         0.146749
 H        -0.607302        -0.077036        -0.537773
 H         0.399231        -0.955300        -1.676800
 H         1.476626         1.607880         1.717877
 H         1.600355        -0.255898         1.903811
 H         4.216574        -0.733338         1.002119
 H         3.078289         2.834303         1.300472
 H         4.538876         2.579887         0.279297
 H         1.641990         1.307194        -2.160566
 H         3.400036        -0.460936        -1.384791
