19
Iteration:  3532charge 0 multiplicity 1
 C         0.196562        -0.499961        -0.790546
 C         1.333391         0.267502        -0.288439
 C         1.843235         0.556052         1.267572
 C         3.290918         0.785088         0.718210
 O         4.461247         0.303919         1.426174
 C         3.571680         2.262659         0.236579
 O         2.445957         2.546664        -0.577091
 C         2.006012         1.324323        -1.118222
 C         2.790116         0.097865        -0.646216
 H         0.393013        -1.589011        -0.409747
 H        -0.657303        -0.068000        -0.393653
 H         0.399316        -0.604855        -1.864851
 H         1.375942         1.403254         1.791809
 H         1.793584        -0.406003         1.865684
 H         4.240108         0.342126         2.352050
 H         3.514849         2.992757         1.071076
 H         4.483037         2.056113        -0.204453
 H         1.615697         1.433360        -2.159039
 H         3.321347        -0.604202        -1.244292
