19
Iteration:  3346charge 0 multiplicity 1
 C         0.191895        -0.601818        -0.467022
 C         1.438535         0.287399        -0.352471
 C         1.830091         0.632029         1.201425
 C         3.260406         0.761989         0.739931
 O         4.283380         0.132738         1.395876
 C         3.413544         2.296024         0.484756
 O         2.543049         2.609444        -0.736098
 C         2.108925         1.355353        -1.197280
 C         2.943529         0.182321        -0.784259
 H         0.113391        -1.504444         0.211745
 H        -0.577035         0.038749        -0.166246
 H        -0.011867        -1.024824        -1.447341
 H         1.256598         1.542660         1.469910
 H         1.487035        -0.270020         1.789384
 H         5.052691         0.391141         0.885512
 H         2.993923         2.733902         1.306627
 H         4.357435         2.623306         0.135572
 H         1.754047         1.462449        -2.213081
 H         3.488407        -0.743869        -1.095625
