19
Iteration:  2421
 C         0.191101        -0.549771        -0.543694
 C         1.396672         0.288666        -0.265336
 C         1.844756         0.607915         1.201962
 C         3.307752         0.743707         0.682537
 O         4.358217         0.333229         1.459752
 C         3.679483         2.132962         0.187240
 O         2.397161         2.565688        -0.572984
 C         1.983005         1.333285        -1.172730
 C         2.843298         0.169053        -0.681274
 H         0.074482        -1.397951        -0.030468
 H        -0.634167         0.045003        -0.385257
 H         0.050353        -0.937212        -1.558319
 H         1.565996         1.511538         1.634170
 H         1.632624        -0.142455         1.934421
 H         4.289421        -0.596558         1.840392
 H         3.720263         3.048943         0.769407
 H         4.467826         2.216397        -0.591705
 H         1.768731         1.509521        -2.194115
 H         3.402173        -0.262043        -1.566835
