19
Iteration:  1920charge 0 multiplicity 1
 C         0.171737        -0.553879        -0.431165
 C         1.372285         0.353665        -0.254732
 C         1.829422         0.648036         1.202295
 C         3.291183         0.795967         0.628786
 O         4.371999         0.221342         1.430214
 C         3.461459         2.298825         0.382138
 O         2.602561         2.516620        -0.804010
 C         2.059464         1.310252        -1.199301
 C         2.844716         0.139451        -0.742345
 H         0.501970        -1.515364         0.193072
 H        -0.812451        -0.120593         0.016823
 H        -0.205260        -0.726077        -1.461387
 H         1.430822         1.519101         1.764207
 H         1.831663        -0.206210         1.889066
 H         4.211388        -0.743166         1.632639
 H         3.155742         3.027756         1.233103
 H         4.515952         2.597482         0.046901
 H         1.581771         1.344747        -2.167974
 H         3.218452        -0.803242        -1.267515
