19
Iteration:  4628charge 0 multiplicity 1
 C         0.237839        -0.568319        -0.541763
 C         1.357085         0.357327        -0.348165
 C         1.701653         0.611189         1.168471
 C         3.234669         0.723985         0.731141
 O         4.379861         0.227379         1.357576
 C         3.451075         2.230401         0.474401
 O         2.559105         2.650605        -0.766548
 C         2.158315         1.326779        -1.180999
 C         2.875016         0.112354        -0.633344
 H         0.617493        -1.550327         0.025202
 H        -0.660950        -0.133624        -0.103080
 H         0.010013        -0.824901        -1.582910
 H         1.101490         1.562304         1.475832
 H         1.533548        -0.265183         1.814710
 H         4.288102        -0.724868         1.643615
 H         3.260137         2.950126         1.322058
 H         4.567898         2.419753         0.351847
 H         1.874912         1.477059        -2.257415
 H         3.576536        -0.391983        -1.254297
