19
Iteration:  3349
 C         0.215146        -0.604772        -0.470686
 C         1.434499         0.287879        -0.331281
 C         1.813364         0.637505         1.212558
 C         3.236181         0.746740         0.729069
 O         4.284237         0.146785         1.402807
 C         3.428820         2.270698         0.469668
 O         2.534277         2.624125        -0.720305
 C         2.112592         1.345687        -1.222584
 C         2.940376         0.166032        -0.788244
 H         0.175382        -1.442717         0.209767
 H        -0.627456         0.098602        -0.129423
 H         0.007932        -0.955076        -1.570970
 H         1.323069         1.547668         1.501005
 H         1.524308        -0.235471         1.837648
 H         5.111039         0.272964         0.809863
 H         2.912664         2.822354         1.337836
 H         4.408618         2.689327         0.157825
 H         1.706663         1.443822        -2.211586
 H         3.568921        -0.691412        -1.109507
