19
Iteration:  2881charge 0 multiplicity 1
 C         0.139112        -0.527489        -0.644786
 C         1.291051         0.320217        -0.181179
 C         1.774835         0.582868         1.270453
 C         3.256206         0.772996         0.707269
 O         4.473292         0.330551         1.368548
 C         3.591986         2.216076         0.358585
 O         2.636301         2.573128        -0.865226
 C         2.006558         1.343454        -1.121520
 C         2.786019         0.131473        -0.591476
 H         0.232607        -1.556332        -0.008654
 H        -0.854806        -0.163922        -0.353768
 H         0.129196        -0.932139        -1.727103
 H         1.278376         1.406215         1.870694
 H         1.687923        -0.378981         1.796027
 H         4.142440        -0.425389         1.885845
 H         3.409055         2.879341         1.214071
 H         4.644146         2.163100        -0.077369
 H         1.453181         1.100912        -2.044571
 H         3.363021        -0.529016        -1.247962
