19
Iteration:  3653
 C         0.196022        -0.557473        -0.799340
 C         1.347752         0.326757        -0.148344
 C         1.905283         0.588945         1.298686
 C         3.222222         0.860049         0.696024
 O         4.413190         0.254797         1.437229
 C         3.472987         2.306686         0.319790
 O         2.551065         2.549595        -0.748718
 C         2.025230         1.300139        -1.111505
 C         2.822721         0.088422        -0.634839
 H        -0.076493        -1.585493        -0.339850
 H        -0.680039         0.029399        -0.814732
 H         0.496855        -0.602741        -1.887683
 H         1.622969         1.332142         1.991141
 H         1.976211        -0.398067         1.761459
 H         4.058706        -0.495678         1.892869
 H         3.191358         2.851474         1.280958
 H         4.495717         2.519880        -0.068375
 H         1.631409         1.353357        -2.124574
 H         3.330345        -0.745407        -1.215938
