19
Iteration:  4213
 C         0.254715        -0.635884        -0.551095
 C         1.378416         0.229555        -0.228085
 C         1.817055         0.637503         1.195906
 C         3.345342         0.835129         0.685186
 O         4.284138         0.029136         1.467423
 C         3.396298         2.403633         0.435442
 O         2.658947         2.605348        -0.794473
 C         2.012074         1.339461        -1.164385
 C         2.838024         0.309914        -0.752266
 H         0.356218        -1.556897         0.022753
 H        -0.716513        -0.165191        -0.438332
 H         0.251707        -0.894396        -1.609362
 H         1.197294         1.345818         1.698750
 H         1.902413        -0.177438         1.886437
 H         4.268303        -0.916749         1.108759
 H         2.950724         3.046833         1.251566
 H         4.410833         2.800587         0.248504
 H         1.666272         1.418839        -2.245566
 H         3.503511        -0.397691        -1.203974
