19
Iteration:  1246charge 0 multiplicity 1
 C         0.104818        -0.393512        -0.595110
 C         1.347863         0.242132        -0.218615
 C         1.834316         0.651597         1.173256
 C         3.285879         0.831457         0.626432
 O         4.383890         0.429787         1.560988
 C         3.725033         2.151433         0.108485
 O         2.436644         2.488133        -0.579837
 C         2.066197         1.218768        -1.145236
 C         2.808102         0.048246        -0.615416
 H         0.195504        -1.508013        -0.513766
 H        -0.810999         0.112894        -0.178775
 H        -0.183021        -0.398657        -1.722934
 H         1.293724         1.369633         1.762554
 H         1.776556        -0.287938         1.779879
 H         4.315652        -0.572620         1.428345
 H         3.942581         2.973165         0.809416
 H         4.548182         2.070564        -0.685482
 H         1.658321         1.296433        -2.133401
 H         3.447073        -0.651554        -1.299690
