19
Iteration:  1551
 C         0.029537        -0.438953        -0.585439
 C         1.472022         0.250403        -0.268442
 C         1.994381         0.488224         1.156777
 C         3.296594         0.849096         0.656737
 O         4.158070         0.347224         1.634184
 C         3.668143         2.168847         0.170460
 O         2.463914         2.516672        -0.656790
 C         2.022507         1.289064        -1.142644
 C         2.871339         0.136054        -0.735908
 H        -0.052913        -1.369611        -0.018568
 H        -0.801618         0.171032        -0.146368
 H        -0.078633        -0.700894        -1.636240
 H         1.544562         1.220778         1.784337
 H         2.021679        -0.500410         1.672778
 H         5.023992         0.709511         1.581721
 H         4.061042         2.788967         0.990682
 H         4.487540         2.112634        -0.569131
 H         1.718863         1.579594        -2.164381
 H         3.238227        -0.662100        -1.208899
