19
Iteration:   478
 C        -0.025388        -0.405330        -0.263576
 C         1.176594         0.436832        -0.099733
 C         1.897051         0.824944         1.265983
 C         3.286248         0.827154         0.621021
 O         4.317893         0.231122         1.390155
 C         3.673253         2.122322         0.040636
 O         2.821689         2.405176        -1.015346
 C         2.054633         1.168816        -1.208110
 C         2.664413         0.048929        -0.476217
 H         0.172470        -1.406535         0.247782
 H        -0.874945        -0.021868         0.341669
 H        -0.328923        -0.716717        -1.254912
 H         1.446258         1.720585         1.733201
 H         1.955102        -0.096452         1.892685
 H         4.734530         0.863673         2.029521
 H         3.600577         2.981134         0.777244
 H         4.796207         2.025483        -0.285106
 H         1.830791         1.120484        -2.247109
 H         3.094627        -0.855182        -0.872808
