19
Iteration:  1960charge 0 multiplicity 1
 C         0.058140        -0.412351        -0.624931
 C         1.457965         0.251366        -0.187597
 C         1.830270         0.631257         1.198254
 C         3.358391         0.845733         0.698935
 O         4.365395         0.339330         1.424825
 C         3.553341         2.288218         0.185309
 O         2.388684         2.458155        -0.579325
 C         2.116485         1.138909        -1.162065
 C         2.922778         0.085330        -0.658714
 H        -0.037564        -1.402131        -0.297728
 H        -0.357880         0.261013         0.070858
 H        -0.358763        -0.119938        -1.648363
 H         1.201521         1.456617         1.540400
 H         1.851218        -0.286215         1.878583
 H         4.222028        -0.594124         1.237207
 H         3.819662         3.066127         0.858439
 H         4.490269         2.462272        -0.377025
 H         1.575878         1.372793        -2.090905
 H         3.340634        -0.834300        -1.147136
