19
Iteration:    35
 C        -0.076192        -0.328042        -0.009938
 C         1.240952         0.471010        -0.059000
 C         1.866749         0.852230         1.321125
 C         3.283023         0.793821         0.661315
 O         4.325738         0.230938         1.502925
 C         3.703850         2.161272         0.001863
 O         2.905580         2.308341        -1.168544
 C         2.045262         1.185893        -1.313013
 C         2.581994        -0.000905        -0.623486
 H        -0.105836        -0.881081         0.905952
 H        -1.011863         0.270380        -0.144011
 H        -0.079655        -1.079337        -0.797726
 H         1.619264         1.844638         1.674122
 H         1.696091         0.100268         2.083629
 H         5.199859         0.312241         1.078994
 H         3.620987         3.042894         0.664849
 H         4.732814         2.102832        -0.344197
 H         1.439628         1.106004        -2.300731
 H         2.826420        -0.994172        -0.995031
