19
Iteration:   219
 C        -0.191416        -0.264860        -0.320935
 C         1.292091         0.426153        -0.072031
 C         1.906144         0.914117         1.217704
 C         3.397626         0.781260         0.689114
 O         4.556117         0.214239         1.465319
 C         3.668070         2.086368        -0.092873
 O         2.629681         2.370430        -0.969962
 C         1.974197         1.143042        -1.195293
 C         2.723587         0.003719        -0.427076
 H        -0.475116        -1.015854         0.486879
 H        -1.006835         0.524963        -0.368213
 H        -0.184614        -0.851386        -1.274025
 H         1.573821         1.949749         1.468855
 H         1.882529         0.108497         1.944250
 H         4.124214         0.116147         2.363017
 H         3.850658         2.942131         0.569289
 H         4.646224         1.879595        -0.669252
 H         1.710531         0.951555        -2.298131
 H         3.053376        -0.959290        -0.804107
