19
Iteration:  3466charge 0 multiplicity 1
 C         0.196553        -0.529814        -0.538046
 C         1.465555         0.253796        -0.263531
 C         1.753014         0.563717         1.149743
 C         3.326315         0.832143         0.706365
 O         4.299763         0.031068         1.324186
 C         3.405797         2.342375         0.418535
 O         2.480751         2.632922        -0.692465
 C         2.070701         1.304848        -1.214298
 C         3.012519         0.222603        -0.681598
 H         0.085429        -1.408770         0.267231
 H        -0.707595        -0.012927        -0.335626
 H         0.044718        -1.066603        -1.496674
 H         1.164412         1.362946         1.684294
 H         1.981408        -0.374076         1.783241
 H         4.611782         0.515151         2.146452
 H         2.913334         3.020141         1.147520
 H         4.524904         2.615625         0.080398
 H         1.708555         1.319554        -2.226920
 H         3.797818        -0.390858        -1.157200
