19
Iteration:  3573
 C         0.125273        -0.504136        -0.665902
 C         1.475933         0.234193        -0.257874
 C         1.868738         0.618234         1.088466
 C         3.375856         0.877669         0.749300
 O         4.362073         0.176909         1.544326
 C         3.525619         2.284409         0.256860
 O         2.397275         2.537032        -0.607149
 C         2.023365         1.303701        -1.168808
 C         2.909562         0.150582        -0.714400
 H         0.188498        -1.579163        -0.279100
 H        -0.694121         0.001121        -0.024696
 H        -0.237304        -0.658338        -1.665075
 H         1.293395         1.394775         1.547509
 H         1.900113        -0.183996         1.766204
 H         3.985240        -0.575716         2.016706
 H         3.549785         3.117139         1.096674
 H         4.417342         2.607333        -0.411141
 H         1.628596         1.369572        -2.193114
 H         3.548702        -0.407362        -1.359811
