19
Iteration:  4715
 C         0.081679        -0.410554        -0.689122
 C         1.418350         0.238450        -0.313001
 C         1.732082         0.531562         1.093290
 C         3.303837         0.743441         0.670491
 O         4.340811         0.413194         1.431266
 C         3.565964         2.196333         0.252244
 O         2.443144         2.550980        -0.468742
 C         2.100860         1.269734        -1.128209
 C         3.037097         0.093745        -0.621039
 H        -0.252537        -1.343695        -0.134567
 H        -0.684632         0.209311        -0.359446
 H         0.053753        -0.628945        -1.733106
 H         1.159407         1.393241         1.563031
 H         1.732321        -0.342911         1.731236
 H         4.288449        -0.486012         1.885883
 H         3.604123         2.931470         1.105402
 H         4.512041         2.281314        -0.367761
 H         1.992969         1.361226        -2.178785
 H         3.552073        -0.663707        -1.146155
