19
Iteration:   435charge 0 multiplicity 1
 C         0.004301        -0.322918        -0.210933
 C         1.312354         0.429048        -0.098086
 C         1.962436         0.858773         1.240168
 C         3.306191         0.817768         0.658747
 O         4.317538         0.254846         1.412081
 C         3.610825         2.149888         0.101241
 O         2.703854         2.366223        -1.062340
 C         2.065056         1.148776        -1.233578
 C         2.729123        -0.010188        -0.515850
 H        -0.050125        -1.147212         0.498370
 H        -0.768850         0.392834        -0.062007
 H        -0.208563        -0.661997        -1.205190
 H         1.688701         1.807596         1.760819
 H         1.784465        -0.004085         1.956670
 H         4.035238        -0.624808         1.688346
 H         3.405557         2.937808         0.857434
 H         4.673557         2.474665        -0.223935
 H         1.574803         1.014946        -2.209969
 H         3.028294        -0.899160        -1.035734
