19
Iteration:   927
 C         0.051065        -0.471145        -0.417798
 C         1.318043         0.323113        -0.166510
 C         1.881726         0.812144         1.203872
 C         3.306343         0.812524         0.706964
 O         4.304299         0.177593         1.550677
 C         3.670958         2.242772         0.065552
 O         2.554767         2.509186        -0.833396
 C         2.045329         1.220789        -1.205027
 C         2.779434         0.048417        -0.569953
 H        -0.131716        -1.433866         0.160534
 H        -0.828087         0.201908        -0.240241
 H         0.081543        -0.737653        -1.514163
 H         1.611451         1.853969         1.590272
 H         1.744534        -0.059379         1.956312
 H         5.001727        -0.183235         1.008901
 H         3.777034         2.919492         0.922251
 H         4.644023         2.244081        -0.442429
 H         1.727810         1.177764        -2.211591
 H         3.365350        -0.752073        -1.171075
