19
Iteration:  2681charge 0 multiplicity 1
 C         0.040895        -0.393527        -0.542516
 C         1.452292         0.181644        -0.236349
 C         1.925684         0.690186         1.099857
 C         3.350327         0.828006         0.620885
 O         4.320736         0.338436         1.527227
 C         3.569370         2.225550         0.187379
 O         2.354173         2.478488        -0.575298
 C         2.119875         1.229042        -1.190294
 C         2.978130         0.045519        -0.679628
 H        -0.180743        -1.412507        -0.220162
 H        -0.612981         0.258812         0.067641
 H        -0.273775        -0.342867        -1.602246
 H         1.342950         1.611192         1.549270
 H         1.851711        -0.027767         1.936237
 H         4.131947        -0.582489         1.639143
 H         3.640219         2.931021         1.022309
 H         4.592671         2.338678        -0.357894
 H         1.589271         1.339240        -2.168853
 H         3.263676        -0.777119        -1.268146
