19
Iteration:  4798
 C         0.150920        -0.687181        -0.745507
 C         1.282171         0.316067        -0.215628
 C         1.681038         0.615272         1.216423
 C         3.258000         0.840253         0.770077
 O         4.470395         0.222184         1.355664
 C         3.575892         2.260530         0.426326
 O         2.669305         2.546137        -0.748678
 C         2.066825         1.365225        -1.194471
 C         2.786867         0.287994        -0.572852
 H         0.463224        -1.464200        -0.132334
 H        -0.975416        -0.447300        -0.530372
 H         0.078855        -1.157801        -1.791009
 H         1.149282         1.376205         1.811885
 H         1.619070        -0.390183         1.792147
 H         4.115607        -0.476557         1.862136
 H         3.409898         2.998463         1.216123
 H         4.653744         2.273599         0.083739
 H         1.498119         1.413775        -2.161509
 H         3.519802        -0.303085        -1.142835
