19
Iteration:  3784charge 0 multiplicity 1
 C         0.169504        -0.630007        -0.800249
 C         1.355085         0.314541        -0.145849
 C         1.731209         0.673312         1.275606
 C         3.233520         0.874628         0.731218
 O         4.383537         0.286747         1.281662
 C         3.536359         2.317518         0.387339
 O         2.629696         2.512593        -0.750465
 C         2.126188         1.289242        -1.127655
 C         2.807821         0.130248        -0.483981
 H         0.203843        -1.669221        -0.344249
 H        -0.746124        -0.243066        -0.586285
 H         0.341930        -0.845112        -1.866317
 H         1.018072         1.280710         1.779270
 H         1.749149        -0.297605         1.778744
 H         4.223912        -0.655377         1.377850
 H         3.176190         3.085809         1.164199
 H         4.656703         2.377920         0.179518
 H         1.681542         1.339074        -2.107062
 H         3.351998        -0.700871        -0.976670
