19
Iteration:  4951charge 0 multiplicity 1
 C         0.327670        -0.571920        -0.651837
 C         1.428153         0.299591        -0.204880
 C         1.730869         0.611410         1.324037
 C         3.174174         0.825050         0.667299
 O         4.241753         0.189463         1.282114
 C         3.479555         2.366741         0.400592
 O         2.645524         2.559433        -0.763663
 C         2.060270         1.312729        -1.127222
 C         2.891824         0.170894        -0.666914
 H         0.451978        -1.496393        -0.201948
 H        -0.678832        -0.230204        -0.261542
 H         0.437122        -0.719167        -1.760536
 H         1.112117         1.307717         1.897884
 H         1.800649        -0.431770         1.785834
 H         3.813048        -0.390413         1.973754
 H         3.449278         3.040858         1.263928
 H         4.577487         2.201524         0.218198
 H         1.593880         1.306362        -2.101617
 H         3.517044        -0.651903        -1.076373
