19
Iteration:   270charge 0 multiplicity 1
 C        -0.019325        -0.266156        -0.247892
 C         1.358091         0.371220        -0.038449
 C         1.913724         0.934704         1.205262
 C         3.330687         0.747569         0.645293
 O         4.274614         0.259255         1.529580
 C         3.784749         2.052087        -0.066546
 O         2.644906         2.410394        -0.940935
 C         1.945196         1.143672        -1.185709
 C         2.677285        -0.075926        -0.592067
 H        -0.039679        -1.219084         0.340709
 H        -0.787184         0.402397         0.111345
 H        -0.305477        -0.481632        -1.282008
 H         1.694451         1.919803         1.582451
 H         1.819877         0.179555         2.046120
 H         5.130705         0.720499         1.354537
 H         3.995000         2.820745         0.688816
 H         4.692652         1.912920        -0.628960
 H         1.462785         1.157917        -2.226718
 H         3.115566        -0.939719        -1.110521
