19
Iteration:  4261charge 0 multiplicity 1
 C         0.225246        -0.476432        -0.634410
 C         1.460963         0.314506        -0.352400
 C         1.752315         0.539742         1.191816
 C         3.199531         0.754862         0.783586
 O         4.395419         0.400391         1.427309
 C         3.538128         2.166898         0.310316
 O         2.479930         2.487715        -0.552086
 C         2.079695         1.331042        -1.186101
 C         2.896147         0.127506        -0.730199
 H         0.302909        -1.544547        -0.514363
 H        -0.726649        -0.020655        -0.177963
 H        -0.031434        -0.213495        -1.678909
 H         1.162847         1.353624         1.612474
 H         1.582114        -0.371090         1.870067
 H         4.167730        -0.435482         1.805835
 H         3.591358         2.824695         1.164421
 H         4.482385         2.268455        -0.257221
 H         1.569461         1.492168        -2.095649
 H         3.453277        -0.571871        -1.382756
