19
Iteration:  4538
 C         0.209173        -0.546153        -0.750781
 C         1.297739         0.357874        -0.245936
 C         1.871118         0.618488         1.213791
 C         3.263437         0.759879         0.661290
 O         4.383937         0.365467         1.420283
 C         3.519093         2.252485         0.382432
 O         2.532780         2.485614        -0.597923
 C         2.103062         1.297284        -1.162305
 C         2.801776         0.103576        -0.648598
 H         0.093399        -1.530448        -0.245217
 H        -0.663684         0.034820        -0.764215
 H         0.345116        -0.676324        -1.867735
 H         1.323953         1.379205         1.832469
 H         1.743994        -0.299560         1.747468
 H         4.218313        -0.527979         1.849970
 H         3.379454         2.921969         1.256980
 H         4.558571         2.440103        -0.021673
 H         1.702504         1.356778        -2.158429
 H         3.227968        -0.745604        -1.246358
