19
Iteration:  1081charge 0 multiplicity 1
 C         0.076698        -0.440156        -0.507036
 C         1.363764         0.298511        -0.160393
 C         1.782217         0.756364         1.216902
 C         3.311925         0.785152         0.642535
 O         4.362248         0.245365         1.423721
 C         3.670127         2.209950         0.104095
 O         2.481130         2.498605        -0.698069
 C         2.117818         1.232238        -1.135480
 C         2.833679         0.011798        -0.604139
 H         0.111888        -1.529519        -0.359883
 H        -0.726951         0.186374        -0.104558
 H        -0.103365        -0.370840        -1.600968
 H         1.303408         1.627818         1.608341
 H         1.902561        -0.013221         1.996392
 H         4.062324         0.470399         2.317488
 H         3.864269         3.038230         0.781528
 H         4.542308         2.070868        -0.547243
 H         1.805499         1.145498        -2.204023
 H         3.249450        -0.696622        -1.238871
