19
Iteration:  1502charge 0 multiplicity 1
 C         0.116531        -0.537890        -0.644622
 C         1.426997         0.329209        -0.228661
 C         1.835456         0.766319         1.259869
 C         3.279441         0.864520         0.701584
 O         4.337675         0.150082         1.401546
 C         3.471440         2.288781         0.303559
 O         2.533196         2.486770        -0.679078
 C         2.094239         1.185160        -1.192775
 C         2.859292         0.119196        -0.570073
 H        -0.145860        -1.438403        -0.010955
 H        -0.737732         0.183672        -0.469982
 H         0.212219        -0.857061        -1.715688
 H         1.332918         1.698899         1.586962
 H         1.661323        -0.042778         1.940286
 H         4.981752         0.068510         0.621383
 H         3.311346         3.039453         1.090293
 H         4.469137         2.494166        -0.031798
 H         1.803167         1.294773        -2.201615
 H         3.554591        -0.735650        -0.972822
