19
Iteration:   843
 C         0.126552        -0.247164        -0.439450
 C         1.427207         0.267306        -0.125665
 C         1.826926         0.795706         1.208651
 C         3.269122         0.863676         0.675595
 O         4.328737         0.297973         1.420844
 C         3.614341         2.209460         0.125817
 O         2.568381         2.431567        -0.842960
 C         2.038444         1.085150        -1.110768
 C         2.800788        -0.055742        -0.559470
 H         0.035675        -1.203288         0.080093
 H        -0.683185         0.286199        -0.037535
 H        -0.161163        -0.348143        -1.513514
 H         1.364128         1.706025         1.468577
 H         1.864733         0.239965         2.114406
 H         4.442273        -0.660738         1.131622
 H         3.503841         2.939329         0.932035
 H         4.549953         2.277178        -0.442766
 H         1.696739         1.041241        -2.105895
 H         3.175108        -0.888754        -1.233635
