19
Iteration:  2612
 C         0.259598        -0.606778        -0.523053
 C         1.297558         0.409733        -0.118463
 C         1.794675         0.687913         1.293203
 C         3.263616         0.835697         0.678472
 O         4.335559         0.222721         1.218458
 C         3.427802         2.235314         0.361486
 O         2.690173         2.524823        -0.797604
 C         2.148850         1.284056        -1.173121
 C         2.747667         0.151956        -0.662220
 H         0.319268        -1.498249         0.072194
 H        -0.895342        -0.307922        -0.502773
 H         0.472528        -0.994673        -1.500452
 H         1.526961         1.598642         1.902761
 H         1.670280        -0.230482         1.989847
 H         4.212646        -0.512998         1.813298
 H         3.126390         2.950868         1.207387
 H         4.483163         2.644149         0.134303
 H         1.594006         1.268873        -2.065029
 H         3.186283        -0.762309        -1.137852
