19
Iteration:  2985
 C         0.112645        -0.466723        -0.581886
 C         1.384309         0.262830        -0.264899
 C         1.873994         0.615007         1.167891
 C         3.279348         0.746182         0.653979
 O         4.341606         0.431110         1.540527
 C         3.675612         2.145446         0.197897
 O         2.446218         2.487890        -0.551366
 C         2.084854         1.342442        -1.172162
 C         2.809434         0.057690        -0.795083
 H         0.276019        -1.465048        -0.027339
 H        -0.834555         0.015771        -0.163404
 H        -0.093312        -0.671048        -1.641017
 H         1.311722         1.467727         1.589542
 H         1.984695        -0.183857         2.020238
 H         3.948608        -0.299392         2.113279
 H         3.839431         3.038861         0.920501
 H         4.585101         2.112976        -0.468267
 H         1.621039         1.455578        -2.171298
 H         3.492212        -0.521797        -1.527277
