19
Iteration:  2926charge 0 multiplicity 1
 C         0.228943        -0.418146        -0.560578
 C         1.363967         0.384816        -0.179633
 C         1.828718         0.684256         1.288076
 C         3.286417         0.774632         0.707682
 O         4.328901         0.190858         1.339571
 C         3.429801         2.311403         0.359742
 O         2.524497         2.545730        -0.822626
 C         2.041086         1.204096        -1.172220
 C         2.935574         0.066091        -0.630845
 H         0.083721        -1.409647         0.096348
 H        -0.665295         0.176259        -0.552567
 H         0.367609        -0.868993        -1.577115
 H         1.352252         1.534461         1.812386
 H         1.863569        -0.247425         1.884162
 H         4.564798        -0.706744         1.144678
 H         3.022992         2.900255         1.207060
 H         4.518908         2.539903         0.148276
 H         1.918205         1.135950        -2.251846
 H         3.322754        -0.834487        -0.997707
