19
Iteration:  3364
 C         0.275385        -0.517906        -0.554370
 C         1.421949         0.294788        -0.225812
 C         1.791942         0.615979         1.194065
 C         3.276627         0.795253         0.633934
 O         4.294371         0.206611         1.439763
 C         3.413316         2.280148         0.368845
 O         2.510679         2.576332        -0.645888
 C         2.106656         1.283685        -1.224275
 C         2.866435         0.166663        -0.690888
 H         0.384699        -1.574565        -0.172883
 H        -0.738752        -0.131975        -0.172253
 H         0.221441        -0.798550        -1.601429
 H         1.340975         1.541754         1.661031
 H         1.744937        -0.243716         1.834629
 H         4.812265        -0.353043         0.856334
 H         3.187744         2.851216         1.390810
 H         4.559940         2.343469         0.083322
 H         1.726718         1.340576        -2.274869
 H         3.426505        -0.436458        -1.384210
