19
Iteration:  3979charge 0 multiplicity 1
 C         0.099007        -0.468647        -0.610045
 C         1.459864         0.241474        -0.383474
 C         1.793897         0.696425         1.045496
 C         3.344375         0.758840         0.682188
 O         4.374829         0.300685         1.597387
 C         3.595139         2.253025         0.257519
 O         2.338904         2.524841        -0.499931
 C         2.084592         1.246428        -1.195590
 C         2.963150         0.062316        -0.775850
 H         0.161075        -1.357451         0.101007
 H        -0.656788         0.192562        -0.196987
 H        -0.203502        -0.836679        -1.623106
 H         1.381296         1.696477         1.349534
 H         1.495338        -0.034705         1.749003
 H         4.177723        -0.263873         2.315036
 H         3.468443         2.628282         1.309028
 H         4.616565         2.432649        -0.231078
 H         1.774887         1.413444        -2.265780
 H         3.664109        -0.473701        -1.370353
