19
Iteration:  1955charge 0 multiplicity 1
 C         0.074035        -0.379860        -0.576914
 C         1.415315         0.205882        -0.218353
 C         1.832778         0.655775         1.201854
 C         3.353756         0.833504         0.692646
 O         4.369317         0.289763         1.426695
 C         3.541988         2.325224         0.236714
 O         2.385941         2.469555        -0.630931
 C         2.139955         1.175858        -1.162666
 C         2.962343         0.086230        -0.690606
 H        -0.091672        -1.495865        -0.336932
 H        -0.581741         0.158952         0.221381
 H        -0.323655        -0.311319        -1.568702
 H         1.181024         1.520735         1.505613
 H         1.861996        -0.093934         1.970759
 H         4.313381        -0.707169         1.279337
 H         3.612877         3.122643         1.065915
 H         4.435247         2.387575        -0.486717
 H         1.615550         1.282394        -2.110138
 H         3.433595        -0.759665        -1.125699
