19
Iteration:  2641charge 0 multiplicity 1
 C         0.218677        -0.585965        -0.625298
 C         1.276277         0.403334        -0.177277
 C         1.756610         0.551315         1.305147
 C         3.302772         0.824092         0.753559
 O         4.436578         0.309302         1.397570
 C         3.564682         2.219273         0.246102
 O         2.668761         2.588136        -0.829516
 C         1.994360         1.297238        -1.140772
 C         2.701032         0.162510        -0.611704
 H         0.447309        -1.533159        -0.015020
 H        -0.797219        -0.281014        -0.328958
 H         0.122247        -0.825904        -1.721703
 H         1.458723         1.366218         1.889333
 H         1.762749        -0.467541         1.686766
 H         4.358388        -0.641578         1.735912
 H         3.504248         3.000298         0.983697
 H         4.515744         2.253255        -0.222632
 H         1.532833         1.219688        -2.102819
 H         3.021294        -0.811111        -1.057795
