19
Iteration:  1220
 C         0.100748        -0.438747        -0.553627
 C         1.370934         0.300484        -0.202683
 C         1.878584         0.588073         1.227337
 C         3.292110         0.702656         0.688716
 O         4.334679         0.350272         1.624433
 C         3.580847         2.113346         0.174575
 O         2.559660         2.555050        -0.781815
 C         2.021818         1.298423        -1.175322
 C         2.832760         0.096517        -0.681877
 H         0.141431        -1.465285        -0.279549
 H        -0.793895         0.098110        -0.265811
 H        -0.083520        -0.511688        -1.564160
 H         1.417495         1.420914         1.813745
 H         1.706498        -0.266929         1.909133
 H         5.145443         0.552081         1.079850
 H         3.640525         2.920653         0.906343
 H         4.486050         2.052582        -0.376142
 H         1.364952         1.413830        -2.060329
 H         3.112020        -0.545428        -1.425797
