19
Iteration:  4048charge 0 multiplicity 1
 C         0.252601        -0.541738        -0.683475
 C         1.313303         0.380669        -0.201534
 C         1.812940         0.565221         1.364007
 C         3.232188         0.735938         0.724226
 O         4.402132         0.310247         1.397652
 C         3.414196         2.228500         0.423038
 O         2.715471         2.541350        -0.855653
 C         2.034849         1.345520        -1.212666
 C         2.749641         0.169511        -0.650128
 H         0.380001        -1.558676        -0.196225
 H        -0.744561        -0.179198        -0.517050
 H         0.420750        -0.769850        -1.782523
 H         1.405850         1.313539         2.075668
 H         1.875831        -0.401848         1.919732
 H         4.350806        -0.655134         1.439888
 H         2.840181         2.902053         1.092733
 H         4.475188         2.474597         0.387148
 H         1.530143         1.424788        -2.155927
 H         3.253385        -0.684398        -1.166505
