19
Iteration:  2500
 C         0.199463        -0.456169        -0.652427
 C         1.328536         0.254819        -0.137642
 C         1.838132         0.585021         1.300004
 C         3.304626         0.793767         0.662776
 O         4.414932         0.324448         1.299468
 C         3.503911         2.339120         0.317127
 O         2.567548         2.517977        -0.715664
 C         2.000253         1.222845        -1.160822
 C         2.788222         0.096522        -0.606707
 H         0.330985        -1.442795        -0.308932
 H        -0.725563        -0.055923        -0.233130
 H         0.107025        -0.388470        -1.721561
 H         1.433463         1.414439         1.810007
 H         1.967657        -0.322673         1.920351
 H         4.008188        -0.559705         1.576415
 H         3.373145         2.963052         1.201765
 H         4.579023         2.560437        -0.000968
 H         1.822902         1.185986        -2.283777
 H         3.207375        -0.774530        -1.036325
