19
Iteration:  1834charge 0 multiplicity 1
 C         0.080563        -0.379236        -0.589630
 C         1.426824         0.250737        -0.251428
 C         1.888117         0.741569         1.170123
 C         3.334203         0.786766         0.657128
 O         4.372823         0.292360         1.461291
 C         3.538888         2.270149         0.165238
 O         2.344363         2.458978        -0.514223
 C         2.103251         1.134244        -1.231056
 C         2.974515         0.067069        -0.624237
 H        -0.254597        -1.281950        -0.109146
 H        -0.670409         0.358438        -0.229430
 H         0.109009        -0.588566        -1.627030
 H         1.628108         1.819161         1.411022
 H         1.787445         0.092563         2.045668
 H         4.088940        -0.581458         1.694649
 H         3.505487         2.882402         1.105721
 H         4.324485         2.233173        -0.560064
 H         1.571572         1.224369        -2.186741
 H         3.658778        -0.553957        -1.308759
