19
Iteration:  1317charge 0 multiplicity 1
 C         0.144463        -0.645884        -0.427017
 C         1.280748         0.403275        -0.187842
 C         1.807760         0.598616         1.235712
 C         3.245443         0.859473         0.729358
 O         4.241928         0.165114         1.398577
 C         3.525312         2.286197         0.375723
 O         2.710083         2.567548        -0.840338
 C         2.164082         1.316987        -1.302947
 C         2.783171         0.155353        -0.662024
 H         0.143564        -1.418803         0.383147
 H        -0.861001        -0.171146        -0.379804
 H         0.189523        -1.238265        -1.363672
 H         1.417476         1.405946         1.933245
 H         1.937971        -0.385187         1.765357
 H         5.062137         0.195142         0.788136
 H         3.191286         3.030047         1.130085
 H         4.592565         2.545882         0.058589
 H         1.692709         1.303149        -2.316498
 H         3.366549        -0.590147        -1.129542
