19
Iteration:   307charge 0 multiplicity 1
 C         0.023468        -0.277682        -0.150814
 C         1.355272         0.411834        -0.104253
 C         1.849874         0.995324         1.210936
 C         3.309919         0.861756         0.655225
 O         4.288799         0.140319         1.339670
 C         3.641941         2.202854         0.096825
 O         2.745277         2.399944        -1.021659
 C         2.062000         1.023028        -1.270946
 C         2.736134         0.010410        -0.443452
 H         0.212741        -1.208143         0.503353
 H        -0.775315         0.250584         0.509609
 H        -0.340307        -0.714047        -1.137313
 H         1.490452         1.983794         1.650337
 H         1.617064         0.140350         1.856063
 H         4.105874        -0.811092         1.055656
 H         3.357298         3.017359         0.769664
 H         4.708772         2.271841        -0.281975
 H         1.609904         0.701205        -2.189013
 H         3.114425        -0.922014        -0.825316
