19
Iteration:  2045
 C         0.190521        -0.572760        -0.401114
 C         1.421285         0.306991        -0.234985
 C         1.824774         0.671478         1.299685
 C         3.284325         0.808459         0.704482
 O         4.379661         0.034282         1.324232
 C         3.425358         2.351898         0.350557
 O         2.533094         2.620550        -0.796008
 C         2.066407         1.348478        -1.305683
 C         2.873440         0.210182        -0.685996
 H         0.136912        -1.312309         0.387790
 H        -0.792871        -0.059190        -0.322092
 H         0.201197        -1.243871        -1.381952
 H         1.342751         1.517459         1.835781
 H         1.653185        -0.233362         1.899469
 H         4.278265        -0.866331         1.626945
 H         3.072149         2.942717         1.215356
 H         4.419975         2.568635        -0.052726
 H         1.843749         1.400914        -2.417493
 H         3.590371        -0.598470        -1.040278
