19
Iteration:  1015
 C         0.044053        -0.454479        -0.372719
 C         1.294539         0.383092        -0.155023
 C         1.889898         0.605477         1.304568
 C         3.215525         0.862523         0.650587
 O         4.274319         0.225010         1.461808
 C         3.503672         2.251112         0.307599
 O         2.776413         2.466976        -1.019461
 C         2.088713         1.233550        -1.221395
 C         2.800560         0.120639        -0.615417
 H         0.053974        -1.400573         0.209041
 H        -0.780434         0.216802        -0.228471
 H        -0.069216        -0.919724        -1.348128
 H         1.566197         1.361579         2.003674
 H         2.008158        -0.435660         1.659813
 H         5.095579         0.408470         0.956280
 H         3.345168         2.937455         1.126735
 H         4.525898         2.337366        -0.005221
 H         1.691726         1.339909        -2.256070
 H         3.087374        -0.855744        -1.044371
