19
Iteration:  1559
 C         0.044544        -0.475349        -0.538674
 C         1.338510         0.248394        -0.260527
 C         1.911634         0.436226         1.216955
 C         3.336407         0.813488         0.623210
 O         4.192868         0.326767         1.651480
 C         3.679633         2.213515         0.188016
 O         2.523058         2.610621        -0.699504
 C         2.031626         1.333272        -1.170542
 C         2.888945         0.107062        -0.741960
 H        -0.002688        -1.518678        -0.072596
 H        -0.884527         0.196411        -0.208219
 H        -0.090141        -0.627003        -1.612459
 H         1.396096         1.149207         1.849383
 H         2.078942        -0.570565         1.546858
 H         5.034460         0.747513         1.426293
 H         3.832603         3.025061         0.947382
 H         4.532582         2.044651        -0.458312
 H         1.748161         1.221352        -2.246595
 H         3.494440        -0.697074        -1.256097
