19
Iteration:  1546charge 0 multiplicity 1
 C         0.077144        -0.414701        -0.597490
 C         1.466366         0.240715        -0.248683
 C         1.964510         0.536981         1.118237
 C         3.312924         0.801301         0.675724
 O         4.165942         0.349217         1.625813
 C         3.644804         2.170396         0.124927
 O         2.457386         2.487695        -0.594112
 C         2.024887         1.271023        -1.166097
 C         2.873995         0.146737        -0.727740
 H        -0.019262        -1.353923         0.029722
 H        -0.745369         0.274237        -0.215952
 H        -0.118897        -0.651081        -1.667592
 H         1.506239         1.282241         1.854585
 H         2.029519        -0.325508         1.770936
 H         5.115749         0.670123         1.646526
 H         3.899405         2.862513         0.963898
 H         4.506359         2.131689        -0.564701
 H         1.568249         1.528378        -2.116209
 H         3.279017        -0.756648        -1.411469
