19
Iteration:   591
 C         0.071668        -0.354917        -0.295436
 C         1.360860         0.445882        -0.062085
 C         1.862604         0.766144         1.394644
 C         3.260632         0.752573         0.660965
 O         4.286798         0.201680         1.356877
 C         3.593974         2.236207         0.124181
 O         2.790539         2.368092        -1.086428
 C         2.012077         1.208935        -1.217558
 C         2.696532         0.015570        -0.595907
 H        -0.201975        -0.925402         0.604366
 H        -0.722320         0.282713        -0.598742
 H         0.422953        -1.082936        -1.080419
 H         1.540376         1.737865         1.891876
 H         1.726889        -0.164619         2.009215
 H         4.780716         0.746923         2.012996
 H         3.097560         2.895435         0.821786
 H         4.704853         2.302469         0.059474
 H         1.483079         1.266464        -2.257769
 H         3.015094        -0.945091        -0.978849
