19
Iteration:  3903
 C         0.174726        -0.618581        -0.792218
 C         1.288578         0.435674        -0.179627
 C         1.813751         0.657781         1.280636
 C         3.295948         0.826996         0.654927
 O         4.392452         0.324891         1.382008
 C         3.462301         2.270602         0.407953
 O         2.676280         2.544422        -0.741684
 C         2.020663         1.243127        -1.168328
 C         2.777095         0.067380        -0.525796
 H         0.340072        -1.687786        -0.411174
 H        -0.847154        -0.356171        -0.596412
 H         0.432473        -0.721011        -1.864796
 H         1.478834         1.557353         1.925825
 H         1.839396        -0.241177         1.892682
 H         4.346105        -0.676114         1.402066
 H         3.066460         2.849023         1.278598
 H         4.466286         2.536562         0.214218
 H         1.760295         0.934976        -2.192867
 H         3.402361        -0.603329        -1.088075
