19
Iteration:  1702
 C         0.131023        -0.486489        -0.560123
 C         1.394920         0.285537        -0.261630
 C         1.811577         0.639972         1.179435
 C         3.340110         0.777878         0.691670
 O         4.321681         0.171201         1.546951
 C         3.573676         2.231578         0.150820
 O         2.434153         2.535520        -0.601415
 C         2.061193         1.244999        -1.172415
 C         2.917621         0.155266        -0.718152
 H        -0.017758        -1.366121         0.058741
 H        -0.713136         0.280947        -0.386435
 H        -0.104561        -0.759207        -1.574560
 H         1.436230         1.732302         1.385418
 H         1.567032        -0.258125         1.804621
 H         4.935403         0.846761         1.753176
 H         3.627413         3.028654         1.016608
 H         4.543800         2.331738        -0.455441
 H         1.760572         1.186959        -2.195913
 H         3.485516        -0.442702        -1.306490
