19
Iteration:   314
 C         0.105782        -0.259433        -0.119467
 C         1.346498         0.412540        -0.087729
 C         1.816124         0.939491         1.296759
 C         3.270876         0.865803         0.657295
 O         4.249362         0.155522         1.282501
 C         3.631843         2.231571         0.057119
 O         2.767440         2.369936        -1.031564
 C         2.076605         1.040936        -1.237190
 C         2.736887        -0.006824        -0.502970
 H         0.219936        -1.179200         0.464505
 H        -0.630494         0.344336         0.356375
 H        -0.172508        -0.606006        -1.103233
 H         1.399402         1.920425         1.393766
 H         1.655151         0.146256         2.067539
 H         3.958707        -0.760841         1.479158
 H         3.449244         2.997212         0.824725
 H         4.678546         2.215293        -0.152582
 H         1.631603         0.875325        -2.320102
 H         3.113933        -0.966972        -0.872062
