19
Iteration:  1374
 C         0.139417        -0.384805        -0.676207
 C         1.413075         0.221417        -0.170613
 C         1.887748         0.681064         1.222860
 C         3.361245         0.799277         0.645291
 O         4.360124         0.231977         1.437357
 C         3.552614         2.267998         0.205538
 O         2.378949         2.516978        -0.623873
 C         2.093363         1.186464        -1.195139
 C         2.838043         0.043501        -0.611812
 H        -0.167232        -1.343065        -0.214801
 H        -0.688938         0.391660        -0.419902
 H         0.150712        -0.461839        -1.746488
 H         1.541816         1.695586         1.685246
 H         2.008946        -0.155265         2.041082
 H         4.184007         0.259243         2.361902
 H         3.580638         3.063825         1.007022
 H         4.434911         2.490818        -0.495385
 H         1.761272         1.263778        -2.212800
 H         3.320458        -0.890874        -1.124516
