19
Iteration:  2920charge 0 multiplicity 1
 C         0.225728        -0.444064        -0.598103
 C         1.374354         0.361289        -0.167018
 C         1.832714         0.698575         1.296591
 C         3.252848         0.830397         0.695723
 O         4.342088         0.204419         1.301968
 C         3.447815         2.280110         0.434030
 O         2.539064         2.537303        -0.868656
 C         2.077516         1.190513        -1.153312
 C         2.855495         0.064361        -0.591757
 H         0.275289        -1.297637        -0.006399
 H        -0.710735         0.185033        -0.627718
 H         0.369593        -0.889590        -1.567801
 H         1.479121         1.595950         1.803311
 H         1.978670        -0.250552         1.893253
 H         4.508443        -0.724505         1.128133
 H         3.137626         2.868841         1.340220
 H         4.439236         2.616758         0.208644
 H         1.690156         1.256239        -2.186947
 H         3.313974        -0.913093        -0.981930
