19
Iteration:  3350
 C         0.223078        -0.603903        -0.475405
 C         1.434262         0.287377        -0.319621
 C         1.804685         0.635915         1.213737
 C         3.228127         0.742955         0.720539
 O         4.286692         0.152050         1.405550
 C         3.431762         2.261865         0.462153
 O         2.531372         2.628163        -0.712499
 C         2.114112         1.340719        -1.232764
 C         2.938141         0.159858        -0.785579
 H         0.210502        -1.421751         0.210695
 H        -0.649077         0.110769        -0.123911
 H         0.020044        -0.916310        -1.590091
 H         1.347861         1.559748         1.528312
 H         1.550411        -0.208461         1.852062
 H         5.109674         0.220757         0.801513
 H         2.897474         2.862654         1.346533
 H         4.438937         2.710337         0.176105
 H         1.684856         1.435968        -2.227145
 H         3.588757        -0.653638        -1.125071
