19
Iteration:  4140
 C         0.137517        -0.450894        -0.756704
 C         1.439297         0.170142        -0.183356
 C         1.857831         0.551236         1.157637
 C         3.276712         0.758734         0.641540
 O         4.361222         0.405115         1.538512
 C         3.647590         2.205391         0.197756
 O         2.376267         2.541426        -0.471109
 C         2.000223         1.274312        -1.139117
 C         2.949988         0.125050        -0.769473
 H        -0.134723        -1.468201        -0.486927
 H        -0.796504         0.292859        -0.557075
 H         0.205142        -0.548420        -1.847850
 H         1.441056         1.501616         1.553308
 H         1.874182        -0.178174         2.118968
 H         4.112887        -0.135553         2.321574
 H         3.702005         2.880994         1.053077
 H         4.601109         2.137689        -0.392421
 H         1.632328         1.486112        -2.175269
 H         3.232389        -0.635253        -1.499742
