19
Iteration:  3097
 C         0.159317        -0.412541        -0.526061
 C         1.436588         0.268903        -0.271089
 C         1.856885         0.577878         1.157612
 C         3.288245         0.764360         0.669103
 O         4.268408         0.270988         1.504611
 C         3.533374         2.244771         0.235565
 O         2.495567         2.529318        -0.627256
 C         2.042498         1.264856        -1.180411
 C         2.872132         0.074632        -0.723545
 H         0.091421        -1.189967         0.189007
 H        -0.798177         0.186926        -0.289088
 H         0.044500        -0.866875        -1.591709
 H         1.328983         1.363790         1.756502
 H         2.002899        -0.336903         1.835687
 H         5.106067         0.717629         1.741136
 H         3.586687         2.991157         1.094006
 H         4.501078         2.275697        -0.387439
 H         1.798637         1.277730        -2.269291
 H         3.218710        -0.538436        -1.511303
