19
Iteration:  2865
 C         0.164009        -0.516534        -0.526825
 C         1.376850         0.358202        -0.232359
 C         1.852218         0.532908         1.206093
 C         3.255407         0.785165         0.695641
 O         4.359453         0.335388         1.460747
 C         3.559883         2.219655         0.193137
 O         2.579099         2.539555        -0.677844
 C         2.040614         1.287498        -1.209179
 C         2.784518         0.121597        -0.699897
 H         0.207082        -1.422526        -0.049610
 H        -0.802885        -0.027691        -0.206676
 H         0.123209        -0.530885        -1.595056
 H         1.446239         1.277762         1.882148
 H         1.840154        -0.420312         1.760964
 H         4.106016        -0.252029         2.161005
 H         3.534318         2.958689         1.012119
 H         4.522896         2.264997        -0.277446
 H         1.769443         1.545862        -2.219913
 H         3.216624        -0.764984        -1.180513
