19
Iteration:  3221
 C         0.230588        -0.543166        -0.438928
 C         1.418913         0.293487        -0.251505
 C         1.893573         0.579922         1.179174
 C         3.267953         0.812080         0.638072
 O         4.192572         0.069801         1.500044
 C         3.478433         2.319807         0.343357
 O         2.528058         2.566881        -0.720453
 C         2.075659         1.364611        -1.258517
 C         2.885458         0.191721        -0.714950
 H         0.465999        -1.491805         0.027471
 H        -0.749095        -0.154550        -0.106008
 H         0.079702        -0.811125        -1.472856
 H         1.440120         1.457065         1.779237
 H         1.743271        -0.312508         1.760340
 H         4.937192         0.510832         1.088364
 H         3.317549         3.066581         1.063261
 H         4.519445         2.476634        -0.035626
 H         1.649214         1.455267        -2.239277
 H         3.432150        -0.525861        -1.360561
