19
Iteration:   474charge 0 multiplicity 1
 C        -0.007987        -0.420373        -0.234277
 C         1.210127         0.449004        -0.127779
 C         1.836761         0.799932         1.273844
 C         3.295991         0.837386         0.685121
 O         4.344596         0.249235         1.365766
 C         3.691251         2.108712         0.066937
 O         2.840133         2.392416        -1.042761
 C         2.053888         1.196058        -1.210999
 C         2.641249         0.061990        -0.511721
 H         0.019913        -1.418441         0.269263
 H        -0.851797         0.027768         0.442142
 H        -0.277527        -0.792722        -1.259438
 H         1.504155         1.741665         1.733596
 H         1.911108        -0.092497         1.892298
 H         4.607519         0.817944         2.118227
 H         3.482033         2.952738         0.728533
 H         4.664838         1.888988        -0.225520
 H         1.679604         1.156508        -2.324644
 H         3.036029        -0.860056        -0.918330
