19
Iteration:  1397
 C         0.055687        -0.320013        -0.613697
 C         1.454577         0.209648        -0.234946
 C         1.771537         0.723460         1.123496
 C         3.315356         0.799268         0.712263
 O         4.400990         0.113222         1.477424
 C         3.517234         2.284197         0.132324
 O         2.350278         2.459642        -0.587496
 C         2.067167         1.179615        -1.146774
 C         3.038882         0.110244        -0.572888
 H        -0.078112        -1.377401        -0.362598
 H        -0.830974         0.268046        -0.178366
 H         0.008738        -0.247002        -1.687175
 H         1.333292         1.734061         1.496552
 H         1.719393        -0.177394         1.885362
 H         4.971916         0.766068         2.016044
 H         3.575527         3.188833         0.801306
 H         4.429860         2.289708        -0.564123
 H         1.903726         1.133322        -2.214624
 H         3.674981        -0.512883        -1.284468
