19
Iteration:  1064charge 0 multiplicity 1
 C         0.000024        -0.457638        -0.506065
 C         1.305189         0.330224        -0.184278
 C         1.917060         0.803629         1.243979
 C         3.327123         0.847297         0.706601
 O         4.358298         0.214293         1.349107
 C         3.583982         2.269103         0.219693
 O         2.583238         2.467484        -0.771681
 C         2.091800         1.127572        -1.247049
 C         2.827277         0.082350        -0.567522
 H         0.216726        -1.486420        -0.168796
 H        -0.899378        -0.059287         0.047949
 H        -0.199364        -0.613823        -1.586240
 H         1.573414         1.814686         1.637390
 H         1.630900        -0.046076         1.879226
 H         4.102402        -0.354584         2.104234
 H         3.308806         2.928972         1.078185
 H         4.617335         2.533965        -0.125764
 H         1.849455         1.196568        -2.277035
 H         3.489566        -0.769502        -0.885466
