19
Iteration:  3302charge 0 multiplicity 1
 C         0.167457        -0.475709        -0.677414
 C         1.415397         0.277211        -0.191295
 C         1.870453         0.488930         1.241798
 C         3.291756         0.762663         0.666186
 O         4.350511         0.228355         1.423008
 C         3.468584         2.245149         0.291271
 O         2.498299         2.596484        -0.677841
 C         2.042759         1.324500        -1.151875
 C         2.885291         0.190101        -0.681310
 H         0.080329        -1.452806        -0.025772
 H        -0.721483         0.055776        -0.473579
 H         0.348808        -0.844077        -1.687877
 H         1.483447         1.374349         1.831944
 H         2.007310        -0.516457         1.770822
 H         4.451559         0.711440         2.254151
 H         3.343174         3.048844         1.060525
 H         4.415668         2.161222        -0.268350
 H         1.567857         1.313634        -2.147102
 H         3.121659        -0.717925        -1.271810
