19
Iteration:   397
 C         0.001113        -0.199904        -0.339208
 C         1.405182         0.260593        -0.078410
 C         1.867273         0.939067         1.209920
 C         3.321927         0.732898         0.690292
 O         4.353402         0.236181         1.490488
 C         3.701197         2.111536        -0.066413
 O         2.497022         2.400006        -0.883884
 C         2.026149         1.108364        -1.120402
 C         2.794666        -0.009153        -0.500815
 H        -0.422540        -0.919614         0.419697
 H        -0.703587         0.771585        -0.314255
 H        -0.083385        -0.630088        -1.402162
 H         1.506325         1.984393         1.428845
 H         1.534267         0.364263         2.091245
 H         5.053382        -0.000801         0.809614
 H         3.991919         2.968347         0.606019
 H         4.495281         1.758853        -0.754514
 H         1.653459         1.104140        -2.158489
 H         3.335826        -0.828244        -1.029838
