19
Iteration:  3540charge 0 multiplicity 1
 C         0.244974        -0.482335        -0.771711
 C         1.409864         0.244229        -0.229503
 C         1.857522         0.570627         1.246867
 C         3.222966         0.827494         0.693606
 O         4.399385         0.325845         1.405500
 C         3.554994         2.159523         0.217242
 O         2.428143         2.583874        -0.559371
 C         2.034155         1.295799        -1.091161
 C         2.849045         0.096773        -0.655644
 H         0.207278        -1.546320        -0.430763
 H        -0.779014        -0.112700        -0.506268
 H         0.132742        -0.400954        -1.829993
 H         1.265050         1.309940         1.754506
 H         1.911205        -0.332219         1.791421
 H         4.080189         0.282244         2.288823
 H         3.793548         2.815602         1.151450
 H         4.434619         2.186792        -0.471909
 H         1.609825         1.451930        -2.063347
 H         3.401473        -0.667258        -1.198944
