19
Iteration:  2851
 C         0.141819        -0.423541        -0.497751
 C         1.408227         0.295986        -0.246973
 C         1.892645         0.632738         1.214652
 C         3.350744         0.776871         0.603239
 O         4.285242         0.310270         1.532369
 C         3.635630         2.207657         0.229876
 O         2.372939         2.523826        -0.634370
 C         2.094685         1.287605        -1.229344
 C         2.900399         0.094094        -0.783000
 H         0.283566        -1.463165        -0.127107
 H        -0.642420         0.065211        -0.010856
 H        -0.156074        -0.661945        -1.480469
 H         1.403384         1.369636         1.865650
 H         1.874378        -0.439228         1.652462
 H         3.734902        -0.262723         2.130826
 H         3.742101         2.945752         1.118383
 H         4.599120         2.276890        -0.349117
 H         1.721698         1.141767        -2.287593
 H         3.197860        -0.682990        -1.432590
