19
Iteration:  4153
 C         0.083759        -0.528517        -0.821213
 C         1.331110         0.217546        -0.324221
 C         1.836783         0.630323         1.174064
 C         3.369737         0.760270         0.696489
 O         4.483585         0.388589         1.536117
 C         3.572004         2.195652         0.222830
 O         2.433843         2.545726        -0.494814
 C         2.038413         1.309121        -1.056654
 C         2.827947         0.089572        -0.690202
 H        -0.000838        -1.457856        -0.208733
 H        -0.877908         0.039002        -0.647942
 H         0.224039        -0.761253        -1.895613
 H         1.319797         1.569307         1.549230
 H         1.719277        -0.260291         1.894887
 H         4.151182        -0.298580         2.145852
 H         3.808832         2.917467         0.997836
 H         4.395294         2.238029        -0.554449
 H         1.660259         1.409866        -2.054586
 H         3.585647        -0.344559        -1.353865
