19
Iteration:  3014charge 0 multiplicity 1
 C         0.203921        -0.517199        -0.652692
 C         1.335388         0.356977        -0.159521
 C         1.833457         0.669327         1.230442
 C         3.301539         0.749148         0.706772
 O         4.414236         0.174020         1.424259
 C         3.568150         2.280306         0.202480
 O         2.460747         2.545593        -0.765604
 C         2.067339         1.298282        -1.133145
 C         2.798462         0.107839        -0.554840
 H         0.485925        -1.580718        -0.456498
 H        -0.736619        -0.173308        -0.322155
 H         0.147092        -0.517078        -1.725208
 H         1.380255         1.562828         1.661582
 H         1.872733        -0.152120         1.891493
 H         4.038559        -0.178335         2.230438
 H         3.423422         3.045240         0.975998
 H         4.504418         2.520710        -0.290148
 H         1.564817         1.288550        -2.110556
 H         3.400750        -0.582430        -1.132431
