19
Iteration:  3102charge 0 multiplicity 1
 C         0.163699        -0.408651        -0.548029
 C         1.428391         0.244348        -0.256927
 C         1.858646         0.565980         1.166301
 C         3.296582         0.765799         0.676862
 O         4.261041         0.266186         1.519414
 C         3.570018         2.258833         0.192337
 O         2.462961         2.536185        -0.609224
 C         2.027964         1.273596        -1.168930
 C         2.908604         0.072669        -0.713595
 H        -0.019597        -1.332429         0.119883
 H        -0.633699         0.331434        -0.429180
 H        -0.041283        -0.746830        -1.536713
 H         1.366355         1.381304         1.742757
 H         1.790431        -0.280587         1.826409
 H         5.061299         0.810497         1.486773
 H         3.682520         2.940409         1.009142
 H         4.573174         2.291572        -0.299515
 H         1.660782         1.169617        -2.182402
 H         3.302367        -0.594483        -1.534109
