19
Iteration:   996charge 0 multiplicity 1
 C         0.029344        -0.378359        -0.442944
 C         1.287471         0.388660        -0.174539
 C         1.860392         0.611769         1.256382
 C         3.317028         0.777418         0.690300
 O         4.373101         0.233714         1.469213
 C         3.625073         2.281950         0.150627
 O         2.656777         2.458032        -0.871043
 C         2.036247         1.208281        -1.191477
 C         2.763229         0.021472        -0.601574
 H        -0.174195        -1.301634         0.179172
 H        -0.865466         0.204993        -0.352074
 H        -0.008769        -0.843364        -1.501445
 H         1.387349         1.471800         1.857311
 H         1.901905        -0.425723         1.716402
 H         4.899305         0.956851         1.935091
 H         3.240179         3.081037         0.807827
 H         4.683420         2.517562        -0.097264
 H         1.590053         1.130934        -2.242990
 H         3.226659        -0.717723        -1.182830
