19
Iteration:  4089
 C         0.044463        -0.556117        -0.558944
 C         1.378521         0.318842        -0.297535
 C         1.781916         0.569798         1.189438
 C         3.257646         0.818367         0.706465
 O         4.444782         0.241406         1.405424
 C         3.398641         2.301718         0.505426
 O         2.597059         2.553328        -0.801792
 C         2.156020         1.310391        -1.275740
 C         2.914222         0.182278        -0.614104
 H         0.071397        -1.546215        -0.018393
 H        -0.683006        -0.044651        -0.028244
 H        -0.306914        -0.841848        -1.566745
 H         1.295269         1.357234         1.804575
 H         1.706570        -0.351038         1.660546
 H         4.370854        -0.766275         1.493311
 H         3.081811         2.823484         1.412378
 H         4.412846         2.568034         0.125453
 H         1.945958         1.312451        -2.344174
 H         3.645051        -0.477381        -1.127640
