19
Iteration:  3906charge 0 multiplicity 1
 C         0.188430        -0.620654        -0.789472
 C         1.270736         0.386495        -0.166621
 C         1.807120         0.657039         1.283878
 C         3.299412         0.813312         0.672102
 O         4.393504         0.324595         1.379656
 C         3.500555         2.285025         0.448965
 O         2.689205         2.554974        -0.779947
 C         2.008802         1.234136        -1.187244
 C         2.757097         0.092226        -0.504498
 H         0.374153        -1.649130        -0.405286
 H        -0.806581        -0.328054        -0.628959
 H         0.448043        -0.679595        -1.896980
 H         1.462671         1.501417         1.929458
 H         1.790661        -0.285502         1.912584
 H         4.302813        -0.656845         1.334354
 H         3.041138         2.864425         1.294770
 H         4.467720         2.613240         0.133221
 H         1.660138         1.016304        -2.252634
 H         3.333362        -0.544915        -1.163859
