19
Iteration:   197
 C         0.034358        -0.203176        -0.165237
 C         1.377709         0.439861        -0.069058
 C         1.848375         1.018942         1.308470
 C         3.244688         0.785031         0.601143
 O         4.346613         0.272425         1.283947
 C         3.651446         2.193343         0.109688
 O         2.706903         2.296775        -0.976341
 C         2.078584         1.010614        -1.214168
 C         2.689086        -0.152120        -0.538214
 H        -0.273612        -0.962083         0.625441
 H        -0.738065         0.605804        -0.337668
 H        -0.037902        -0.797799        -1.118386
 H         1.589012         2.117137         1.319498
 H         1.834943         0.342499         2.173651
 H         4.045592        -0.565533         1.643953
 H         3.508556         2.995023         0.838630
 H         4.781775         2.229436        -0.166931
 H         1.569833         0.851906        -2.257935
 H         3.159971        -0.956854        -1.109959
