19
Iteration:  2959charge 0 multiplicity 1
 C         0.052195        -0.479265        -0.512571
 C         1.413813         0.213248        -0.319049
 C         1.857237         0.606315         1.118513
 C         3.315117         0.782300         0.668128
 O         4.330259         0.338999         1.567030
 C         3.651624         2.224591         0.268537
 O         2.475039         2.607383        -0.639575
 C         1.972668         1.282779        -1.201820
 C         2.940357         0.086235        -0.728093
 H        -0.109433        -1.295497         0.310383
 H        -0.723649         0.214878        -0.225389
 H        -0.190444        -0.780622        -1.528383
 H         1.167914         1.262685         1.643968
 H         1.925280        -0.251048         1.787930
 H         4.393545        -0.635424         1.372834
 H         3.630918         3.051537         1.012501
 H         4.643645         2.228781        -0.263658
 H         1.855911         1.218980        -2.279972
 H         3.464694        -0.657983        -1.253302
