19
Iteration:  2136
 C         0.095667        -0.475396        -0.688653
 C         1.367334         0.285444        -0.124869
 C         1.932421         0.549674         1.291756
 C         3.306259         0.818188         0.717116
 O         4.404584         0.369442         1.388996
 C         3.607351         2.206043         0.151243
 O         2.473070         2.523786        -0.627378
 C         1.999226         1.261301        -1.153680
 C         2.821964         0.128295        -0.651000
 H         0.154667        -1.553320        -0.554582
 H        -0.871304        -0.146025        -0.316399
 H         0.163972        -0.071731        -1.760292
 H         1.391253         1.222167         1.983380
 H         1.915267        -0.481349         1.801355
 H         4.035664        -0.112826         2.135371
 H         3.639856         2.981303         0.914835
 H         4.456175         2.082459        -0.514436
 H         1.699315         1.257647        -2.195102
 H         3.192340        -0.661636        -1.243190
