19
Iteration:  4505
 C         0.144888        -0.576437        -0.552086
 C         1.463940         0.307125        -0.284970
 C         1.787482         0.529406         1.176997
 C         3.193246         0.824131         0.728862
 O         4.425886         0.208616         1.450361
 C         3.341173         2.336773         0.457044
 O         2.646552         2.541407        -0.742342
 C         2.114642         1.333858        -1.243694
 C         2.884105         0.222973        -0.715482
 H        -0.252631        -1.318072         0.197713
 H        -0.558885         0.179189        -0.485083
 H         0.113483        -1.099851        -1.559530
 H         1.199509         1.368549         1.642089
 H         1.813722        -0.433515         1.627412
 H         4.248284        -0.760785         1.362749
 H         2.965124         3.042945         1.237488
 H         4.433926         2.505736         0.236367
 H         1.633572         1.402775        -2.181153
 H         3.481325        -0.531353        -1.271323
