19
Iteration:   640charge 0 multiplicity 1
 C         0.052575        -0.265399        -0.354727
 C         1.359982         0.306416        -0.133924
 C         1.842615         0.865651         1.259570
 C         3.247637         0.810602         0.694486
 O         4.375103         0.267896         1.482518
 C         3.581619         2.154333         0.108961
 O         2.583791         2.426765        -0.924117
 C         2.086375         1.092336        -1.224812
 C         2.794834        -0.018911        -0.568308
 H        -0.069028        -1.173953         0.242308
 H        -0.633367         0.554431        -0.019643
 H        -0.066758        -0.503291        -1.384553
 H         1.530254         1.874586         1.492324
 H         1.734586         0.141536         2.072796
 H         4.881619        -0.337369         0.932081
 H         3.578790         2.912241         0.934040
 H         4.639448         2.040558        -0.417477
 H         1.697001         1.093598        -2.200357
 H         3.156299        -0.977066        -1.026762
