19
Iteration:  4737
 C         0.065247        -0.479765        -0.652073
 C         1.418887         0.182286        -0.362823
 C         1.847465         0.607239         1.122801
 C         3.329847         0.825086         0.722292
 O         4.366648         0.216469         1.567593
 C         3.568652         2.326569         0.301913
 O         2.427698         2.573900        -0.582435
 C         2.102844         1.240414        -1.213502
 C         2.932912         0.180706        -0.682450
 H        -0.054561        -1.502914        -0.133987
 H        -0.626013         0.076787        -0.113093
 H        -0.099432        -0.614097        -1.695919
 H         1.286672         1.449775         1.625791
 H         1.550163        -0.272927         1.641356
 H         4.227703        -0.695133         1.726648
 H         3.461262         3.025939         1.171202
 H         4.537208         2.375252        -0.244657
 H         1.789807         1.421150        -2.196680
 H         3.410556        -0.413095        -1.434626
