19
Iteration:  3318
 C         0.162995        -0.567461        -0.533929
 C         1.330185         0.339214        -0.288236
 C         1.892833         0.514148         1.224011
 C         3.291349         0.814177         0.693477
 O         4.286697         0.148929         1.406039
 C         3.527962         2.329022         0.366583
 O         2.522817         2.594631        -0.712253
 C         2.070555         1.293772        -1.175914
 C         2.890418         0.145805        -0.750150
 H         0.051749        -1.407953         0.081816
 H        -0.802627         0.094253        -0.462765
 H         0.152127        -0.970975        -1.606806
 H         1.282942         1.131428         1.859026
 H         1.880254        -0.471416         1.646614
 H         4.753841         0.835244         1.848781
 H         3.132566         2.843023         1.382247
 H         4.538004         2.760830         0.052879
 H         1.741918         1.376033        -2.205343
 H         3.698182        -0.431591        -1.196436
