19
Iteration:  4709
 C         0.107257        -0.401983        -0.693618
 C         1.417851         0.234573        -0.311634
 C         1.775232         0.553476         1.137948
 C         3.271516         0.760147         0.689410
 O         4.351709         0.423601         1.439656
 C         3.571544         2.200485         0.274558
 O         2.433645         2.529885        -0.480023
 C         2.125068         1.224298        -1.149593
 C         2.982540         0.114844        -0.658782
 H        -0.024697        -1.336657        -0.140778
 H        -0.735094         0.403560        -0.495444
 H         0.126594        -0.592204        -1.797614
 H         1.237616         1.311774         1.681764
 H         1.459136        -0.419582         1.667328
 H         4.371782        -0.417490         1.879398
 H         3.623402         2.810114         1.162046
 H         4.483084         2.122886        -0.338597
 H         1.787850         1.411950        -2.201120
 H         3.473330        -0.688985        -1.287003
