19
Iteration:  4832charge 0 multiplicity 1
 C         0.210175        -0.413355        -0.697636
 C         1.449619         0.292360        -0.212568
 C         1.855166         0.596253         1.199261
 C         3.322073         0.785729         0.651506
 O         4.302647         0.304385         1.483766
 C         3.504855         2.195638         0.330137
 O         2.429106         2.525393        -0.589326
 C         2.145799         1.296437        -1.256740
 C         2.848077         0.086532        -0.710375
 H         0.091230        -1.292671        -0.110831
 H        -0.753245         0.152525        -0.427448
 H         0.398390        -0.758851        -1.783032
 H         1.406519         1.500456         1.698375
 H         1.837861        -0.275702         1.927167
 H         3.960921        -0.465096         1.941934
 H         3.386841         2.880193         1.197750
 H         4.493425         2.441968        -0.165884
 H         1.450179         1.273787        -2.073693
 H         3.371770        -0.719755        -1.221807
