19
Iteration:  1773charge 0 multiplicity 1
 C         0.169227        -0.480687        -0.505767
 C         1.327853         0.401663        -0.175759
 C         1.868402         0.506338         1.284252
 C         3.272035         0.758594         0.671103
 O         4.402531         0.368947         1.435041
 C         3.431502         2.259316         0.349640
 O         2.763328         2.478226        -0.873395
 C         1.995227         1.301850        -1.227311
 C         2.737604         0.106562        -0.660126
 H         0.379438        -1.505666        -0.041795
 H        -0.850642        -0.046353        -0.246874
 H         0.111104        -0.651487        -1.681745
 H         1.523253         1.335710         1.875461
 H         1.804153        -0.509515         1.745324
 H         4.314390        -0.555717         1.577235
 H         2.952621         2.874199         1.136064
 H         4.452777         2.719900         0.246618
 H         1.531389         1.456028        -2.232597
 H         2.896864        -0.823681        -1.265660
