19
Iteration:  4631charge 0 multiplicity 1
 C         0.254404        -0.582736        -0.549787
 C         1.371137         0.340643        -0.301393
 C         1.668853         0.589223         1.164395
 C         3.214750         0.742734         0.739268
 O         4.370554         0.223533         1.333488
 C         3.462809         2.223706         0.497431
 O         2.572907         2.653475        -0.787787
 C         2.162006         1.346583        -1.202897
 C         2.880230         0.134714        -0.632261
 H         0.567129        -1.481707         0.036528
 H        -0.664784        -0.003134        -0.146260
 H        -0.024736        -0.809614        -1.552188
 H         1.226195         1.497064         1.586640
 H         1.498825        -0.329387         1.823759
 H         4.314029        -0.664949         1.614625
 H         3.232096         2.956928         1.260766
 H         4.534819         2.405487         0.309872
 H         1.793677         1.408295        -2.186745
 H         3.638029        -0.458864        -1.128352
