19
Iteration:  4532
 C         0.204058        -0.543519        -0.724788
 C         1.380090         0.393676        -0.228687
 C         1.818408         0.588487         1.200435
 C         3.245174         0.696739         0.627477
 O         4.369403         0.366221         1.412599
 C         3.526497         2.253587         0.431060
 O         2.535331         2.500073        -0.656368
 C         2.086560         1.336664        -1.145301
 C         2.818668         0.088953        -0.648322
 H         0.011987        -1.530127        -0.199365
 H        -0.815275         0.032605        -0.659687
 H         0.482501        -0.818504        -1.722988
 H         1.516066         1.569224         1.617022
 H         1.745440        -0.342544         1.859539
 H         4.326406        -0.528595         1.793271
 H         3.218337         2.800209         1.343385
 H         4.493923         2.651972         0.130973
 H         1.727881         1.282048        -2.211714
 H         3.245022        -0.661058        -1.256062
