19
Iteration:  1019
 C         0.084684        -0.468018        -0.363645
 C         1.318326         0.398444        -0.164535
 C         1.875961         0.614736         1.321555
 C         3.189408         0.804164         0.673643
 O         4.262787         0.241447         1.446290
 C         3.502150         2.256806         0.294677
 O         2.784206         2.487152        -1.019015
 C         2.092196         1.253177        -1.229701
 C         2.813774         0.096529        -0.629298
 H        -0.050089        -1.359524         0.292731
 H        -0.783774         0.158111        -0.121468
 H        -0.115573        -0.864081        -1.416711
 H         1.550164         1.430591         2.041097
 H         1.968364        -0.414593         1.741045
 H         5.033413         0.172572         0.841719
 H         3.188602         3.017665         1.049301
 H         4.593356         2.341090         0.101303
 H         1.582634         1.276035        -2.215296
 H         3.145503        -0.800110        -1.054791
