19
Iteration:  1338
 C         0.152806        -0.580388        -0.500574
 C         1.326938         0.317558        -0.206733
 C         1.748717         0.544564         1.212630
 C         3.229814         0.729235         0.677767
 O         4.400307         0.307206         1.493555
 C         3.547448         2.301286         0.277464
 O         2.723668         2.590503        -0.839250
 C         2.014083         1.386878        -1.174441
 C         2.757340         0.134701        -0.650633
 H         0.179102        -1.325275         0.334745
 H        -0.830431        -0.067066        -0.583332
 H         0.247765        -1.247130        -1.420335
 H         1.372038         1.338768         1.881890
 H         1.783162        -0.356447         1.810279
 H         4.538408        -0.609986         1.257039
 H         3.375756         3.015316         1.108615
 H         4.657492         2.296478        -0.055628
 H         1.659495         1.323512        -2.238624
 H         3.091749        -0.640957        -1.255278
