19
Iteration:  4012charge 0 multiplicity 1
 C         0.180139        -0.433583        -0.727625
 C         1.439995         0.216718        -0.221356
 C         1.821505         0.565151         1.262580
 C         3.238376         0.830698         0.730859
 O         4.325446         0.285206         1.450539
 C         3.602894         2.268921         0.234062
 O         2.447868         2.559232        -0.633719
 C         2.071740         1.249465        -1.162570
 C         2.910920         0.099304        -0.693762
 H         0.031998        -1.398522        -0.149814
 H        -0.680485         0.185315        -0.525834
 H         0.136908        -0.632315        -1.824652
 H         1.251624         1.347370         1.821176
 H         1.875193        -0.341086         1.818094
 H         3.992602        -0.348441         2.114259
 H         3.429440         3.024936         1.061764
 H         4.602297         2.563586        -0.228785
 H         1.572001         1.219520        -2.162599
 H         3.609054        -0.604768        -1.122268
