19
Iteration:  3661charge 0 multiplicity 1
 C         0.251871        -0.469881        -0.799079
 C         1.379620         0.292645        -0.143936
 C         1.905336         0.600181         1.255468
 C         3.354970         0.767188         0.715638
 O         4.353622         0.302030         1.424810
 C         3.469534         2.271480         0.321427
 O         2.505849         2.544062        -0.698571
 C         1.960181         1.247583        -1.145594
 C         2.811302         0.106170        -0.671100
 H         0.093507        -1.445075        -0.290936
 H        -0.680110         0.132747        -0.800660
 H         0.466073        -0.550104        -1.856403
 H         1.471110         1.354736         1.921027
 H         1.926931        -0.297399         1.857512
 H         3.979961        -0.383535         1.989698
 H         3.351416         3.001505         1.203230
 H         4.548519         2.489506         0.021393
 H         1.549953         1.258639        -2.185439
 H         3.327586        -0.794409        -0.938588
