19
Iteration:  2037
 C         0.166161        -0.599610        -0.413782
 C         1.384309         0.351019        -0.248653
 C         1.859138         0.637512         1.292000
 C         3.263254         0.787053         0.704052
 O         4.330466         0.128127         1.276682
 C         3.447919         2.325955         0.307937
 O         2.581010         2.626662        -0.757348
 C         2.041638         1.271932        -1.216183
 C         2.910992         0.184226        -0.676668
 H         0.241360        -1.217241         0.459569
 H        -0.787959        -0.131603        -0.521104
 H         0.363788        -0.955893        -1.477770
 H         1.500249         1.465915         1.929235
 H         1.667780        -0.356734         1.849820
 H         3.974634        -0.646344         1.691067
 H         3.047150         2.950265         1.147883
 H         4.587152         2.623473        -0.007150
 H         1.838098         1.429517        -2.245495
 H         3.485036        -0.646139        -1.193396
