19
Iteration:  2991
 C         0.115600        -0.494180        -0.603013
 C         1.423587         0.312265        -0.240441
 C         1.870524         0.643454         1.212779
 C         3.285665         0.766767         0.659648
 O         4.398604         0.374934         1.560923
 C         3.646570         2.142267         0.204844
 O         2.452455         2.517901        -0.563864
 C         1.987801         1.307962        -1.204263
 C         2.824282         0.082283        -0.791332
 H         0.291234        -1.535526        -0.293366
 H        -0.702067         0.054821        -0.224309
 H        -0.082710        -0.677359        -1.671050
 H         1.357117         1.542739         1.560660
 H         1.831595        -0.236899         1.795546
 H         3.932973        -0.207641         2.192386
 H         3.788829         3.000608         0.827746
 H         4.538062         2.070392        -0.421260
 H         1.704101         1.342127        -2.253647
 H         3.256539        -0.678621        -1.380195
