19
Iteration:  1257
 C         0.031778        -0.456525        -0.637615
 C         1.349729         0.311047        -0.226099
 C         1.863837         0.704463         1.172544
 C         3.376453         0.814883         0.688823
 O         4.340158         0.336438         1.460710
 C         3.638561         2.227236         0.095498
 O         2.437658         2.462690        -0.579383
 C         2.065794         1.199813        -1.143510
 C         2.898498         0.067661        -0.565112
 H         0.002342        -1.517127        -0.279948
 H        -0.837311        -0.061633        -0.049783
 H         0.014265        -0.244145        -1.753036
 H         1.407318         1.554274         1.650044
 H         2.007397        -0.177855         1.831510
 H         4.097939        -0.421374         1.994313
 H         3.802997         2.955725         0.903478
 H         4.580280         2.153687        -0.540168
 H         1.733942         1.245321        -2.174093
 H         3.427581        -0.608867        -1.356158
