19
Iteration:  4768
 C         0.343887        -0.524872        -0.654305
 C         1.423506         0.356975        -0.210218
 C         1.845654         0.628374         1.246131
 C         3.248624         0.741238         0.656675
 O         4.238879         0.235513         1.418082
 C         3.470066         2.246858         0.371558
 O         2.581249         2.610417        -0.730596
 C         2.089345         1.302746        -1.178090
 C         2.763824         0.124436        -0.648960
 H         0.617280        -1.478787        -0.148154
 H        -0.640684        -0.327303        -0.182453
 H         0.237858        -0.830905        -1.738413
 H         1.424281         1.518813         1.782273
 H         1.736644        -0.344121         1.649210
 H         4.026121        -0.749253         1.547574
 H         3.288471         2.821771         1.302021
 H         4.493043         2.469150         0.194953
 H         1.594448         1.430040        -2.103928
 H         3.261264        -0.459834        -1.362538
