19
Iteration:  1207charge 0 multiplicity 1
 C         0.097603        -0.443710        -0.534965
 C         1.317946         0.364861        -0.165305
 C         1.891306         0.597593         1.237782
 C         3.296498         0.781998         0.647348
 O         4.301510         0.248042         1.529271
 C         3.573505         2.240574         0.246911
 O         2.597379         2.502458        -0.815898
 C         2.013170         1.245598        -1.164262
 C         2.774562         0.080604        -0.727990
 H         0.171466        -1.384831        -0.004025
 H        -0.784139        -0.001726        -0.154576
 H         0.145000        -0.635018        -1.595275
 H         1.564705         1.494441         1.840627
 H         1.954690        -0.372241         1.729275
 H         5.096598         0.842953         1.550605
 H         3.409384         2.844253         1.139466
 H         4.584988         2.358771        -0.071470
 H         1.792817         1.175002        -2.256511
 H         3.478293        -0.659072        -1.132822
