19
Iteration:  1453
 C         0.157266        -0.605979        -0.516380
 C         1.334546         0.427884        -0.210998
 C         1.871208         0.549754         1.269996
 C         3.280929         0.735955         0.688234
 O         4.298905         0.244210         1.599812
 C         3.510697         2.251706         0.371431
 O         2.722170         2.522246        -0.905394
 C         1.986035         1.366886        -1.267268
 C         2.726769         0.230415        -0.742311
 H         0.538953        -1.468127        -0.002622
 H        -0.879075        -0.262292        -0.331422
 H         0.209621        -0.892693        -1.591015
 H         1.657594         1.246595         2.170679
 H         1.925322        -0.513793         1.793997
 H         4.949634        -0.260251         1.104802
 H         3.034316         3.038724         0.990779
 H         4.588614         2.558358         0.154658
 H         1.540923         1.466940        -2.283705
 H         3.065954        -0.565956        -1.293766
