19
Iteration:  1532charge 0 multiplicity 1
 C         0.141402        -0.382896        -0.578548
 C         1.431449         0.264638        -0.252006
 C         1.833705         0.644906         1.183454
 C         3.361598         0.777857         0.598176
 O         4.280682         0.269416         1.660950
 C         3.622980         2.199775         0.150465
 O         2.391870         2.495319        -0.561539
 C         2.021031         1.228941        -1.165037
 C         2.878551         0.055726        -0.761375
 H        -0.117780        -1.288399        -0.085533
 H        -0.620312         0.267700        -0.337733
 H         0.214532        -0.604017        -1.685471
 H         1.300252         1.622029         1.506377
 H         1.729068        -0.287654         1.830126
 H         5.123122         0.634452         1.322558
 H         3.762341         2.972955         0.922858
 H         4.533733         2.316243        -0.547494
 H         1.682402         1.307022        -2.209670
 H         3.513033        -0.567510        -1.456370
