19
Iteration:  1024charge 0 multiplicity 1
 C         0.118825        -0.477143        -0.365595
 C         1.355477         0.407969        -0.159370
 C         1.846441         0.622790         1.328979
 C         3.204360         0.738639         0.708784
 O         4.253716         0.257295         1.425077
 C         3.497635         2.271155         0.258780
 O         2.790339         2.505646        -0.997135
 C         2.089621         1.270985        -1.243018
 C         2.797316         0.081224        -0.646498
 H        -0.024301        -1.257490         0.387317
 H        -0.816278         0.106458        -0.024790
 H        -0.078116        -0.712354        -1.386039
 H         1.490927         1.390970         1.983963
 H         1.812114        -0.306507         1.906657
 H         4.914399        -0.069373         0.789142
 H         3.023276         3.038187         0.900364
 H         4.610520         2.389826         0.210874
 H         1.526482         1.154249        -2.156010
 H         3.304901        -0.842103        -1.117231
