19
Iteration:  4224
 C         0.138538        -0.681749        -0.574813
 C         1.393192         0.301368        -0.224480
 C         1.841276         0.573975         1.152844
 C         3.306830         0.905683         0.679126
 O         4.332463         0.048429         1.521230
 C         3.431367         2.438405         0.398729
 O         2.621585         2.589453        -0.742093
 C         2.095664         1.421810        -1.217519
 C         2.877183         0.164653        -0.713015
 H         0.298522        -1.617222        -0.035566
 H        -0.801177        -0.356536        -0.129106
 H         0.117006        -0.928648        -1.627626
 H         1.423437         1.422601         1.636284
 H         1.718908        -0.337980         1.679363
 H         4.101501        -0.763228         1.066877
 H         2.896571         3.002496         1.224721
 H         4.480005         2.755220         0.285801
 H         1.493881         1.621997        -2.165647
 H         3.386101        -0.406543        -1.473209
