19
Iteration:  4101charge 0 multiplicity 1
 C         0.047859        -0.482149        -0.552030
 C         1.367660         0.312161        -0.308568
 C         1.860921         0.492108         1.182995
 C         3.342842         0.752327         0.746216
 O         4.390262         0.222965         1.493434
 C         3.462373         2.339898         0.362426
 O         2.447998         2.609875        -0.753896
 C         2.139689         1.231644        -1.213114
 C         2.996728         0.213507        -0.696170
 H         0.107443        -1.525518        -0.133318
 H        -0.774911         0.022817        -0.211248
 H        -0.091884        -0.472566        -1.655727
 H         1.379535         1.323783         1.741861
 H         1.615900        -0.385490         1.660083
 H         4.014637        -0.636146         1.715609
 H         3.213448         3.045473         1.173411
 H         4.462554         2.651558        -0.000611
 H         1.950636         1.084578        -2.256335
 H         3.478338        -0.657365        -1.192099
