19
Iteration:   894
 C         0.220704        -0.497766        -0.249121
 C         1.295555         0.480323        -0.127123
 C         1.797962         0.711134         1.209122
 C         3.231217         0.777295         0.639383
 O         4.241856         0.172142         1.388005
 C         3.625819         2.220430         0.183632
 O         2.799798         2.477828        -0.964896
 C         2.045744         1.267729        -1.190375
 C         2.677562         0.050688        -0.635213
 H         0.345127        -1.467390         0.321567
 H        -0.801770        -0.070419        -0.049732
 H         0.102926        -0.849773        -1.301157
 H         1.456252         1.611978         1.889522
 H         1.605961        -0.320310         1.705260
 H         4.534125         0.952777         1.936336
 H         3.357768         2.846892         1.066437
 H         4.646121         2.478797        -0.210571
 H         1.615746         1.294677        -2.138337
 H         3.119851        -0.914788        -1.031604
