19
Iteration:  1380
 C         0.133376        -0.360373        -0.700541
 C         1.406148         0.226269        -0.223580
 C         1.902806         0.681607         1.225677
 C         3.409183         0.814795         0.688256
 O         4.364984         0.183783         1.433659
 C         3.588372         2.302832         0.169905
 O         2.304133         2.517081        -0.628009
 C         2.099128         1.167901        -1.154964
 C         2.856362        -0.000339        -0.579171
 H        -0.069848        -1.297927        -0.169743
 H        -0.527835         0.396416        -0.357166
 H        -0.111464        -0.369869        -1.808269
 H         1.426260         1.565962         1.549997
 H         1.780595        -0.000040         2.018809
 H         4.257347         0.506732         2.382766
 H         3.606833         2.972915         1.016620
 H         4.416502         2.481934        -0.493186
 H         1.704600         1.334350        -2.179797
 H         3.444799        -0.725059        -1.021835
