19
Iteration:  1187charge 0 multiplicity 1
 C         0.107749        -0.492666        -0.464720
 C         1.417124         0.347312        -0.174861
 C         1.828643         0.683912         1.222570
 C         3.270834         0.871657         0.694602
 O         4.322842         0.074624         1.291119
 C         3.462380         2.360457         0.330530
 O         2.645349         2.485497        -0.870068
 C         2.151680         1.230264        -1.203448
 C         2.823874         0.099794        -0.575334
 H        -0.027144        -1.252931         0.268075
 H        -0.801948         0.061200        -0.196599
 H         0.097878        -0.802586        -1.442617
 H         1.399382         1.531637         1.806033
 H         1.762538        -0.321303         1.675905
 H         4.481044         0.587349         2.075040
 H         3.075924         2.979224         1.171633
 H         4.426460         2.719872         0.026771
 H         1.555883         1.190618        -2.143049
 H         3.179618        -0.787569        -1.009330
