19
Iteration:  3367
 C         0.263002        -0.520154        -0.578286
 C         1.412032         0.306651        -0.238144
 C         1.828017         0.618674         1.193263
 C         3.302993         0.819283         0.655185
 O         4.286105         0.218791         1.442020
 C         3.429965         2.293179         0.365422
 O         2.503938         2.550892        -0.650899
 C         2.089699         1.287936        -1.178412
 C         2.855736         0.178125        -0.680063
 H         0.341455        -1.621425        -0.266314
 H        -0.659172        -0.193616        -0.212930
 H         0.243493        -0.768739        -1.606507
 H         1.256376         1.509891         1.619298
 H         1.735192        -0.352160         1.781933
 H         4.761139        -0.463346         0.870572
 H         3.265218         2.760159         1.297250
 H         4.468260         2.312025        -0.060576
 H         1.798745         1.334816        -2.221689
 H         3.346807        -0.543942        -1.383285
