19
Iteration:  4077
 C         0.160017        -0.538461        -0.505962
 C         1.356838         0.271566        -0.324828
 C         1.736725         0.588090         1.167144
 C         3.217146         0.781804         0.739257
 O         4.399381         0.319020         1.318954
 C         3.386550         2.286792         0.444775
 O         2.730406         2.536249        -0.727425
 C         2.134454         1.299965        -1.190924
 C         2.839555         0.123270        -0.649584
 H         0.392657        -1.482208         0.023992
 H        -0.732336        -0.048120        -0.163307
 H        -0.033375        -0.673965        -1.574049
 H         1.193699         1.399513         1.694322
 H         1.744322        -0.264730         1.806802
 H         4.368575        -0.623407         1.214813
 H         2.779910         2.930205         1.090159
 H         4.453725         2.585570         0.665593
 H         1.766522         1.443267        -2.225166
 H         3.403466        -0.617313        -1.226350
