19
Iteration:   746
 C         0.076075        -0.458587        -0.369797
 C         1.293628         0.431959        -0.113413
 C         1.813998         0.932783         1.257387
 C         3.351200         0.852363         0.699672
 O         4.372013         0.063948         1.440037
 C         3.583112         2.318646         0.178384
 O         2.719726         2.435886        -1.017076
 C         2.016822         1.148523        -1.186684
 C         2.710303         0.047280        -0.536868
 H         0.168121        -1.142836         0.500593
 H        -1.026678        -0.111881        -0.292135
 H         0.053785        -1.091895        -1.315407
 H         1.198327         1.839839         1.545045
 H         1.627642         0.196788         2.075433
 H         4.839982        -0.494752         0.766021
 H         3.278364         2.987350         1.034213
 H         4.686161         2.466265        -0.006079
 H         1.864851         1.042793        -2.199551
 H         3.085469        -0.881603        -1.090338
