19
Iteration:  4397
 C         0.271617        -0.543477        -0.653643
 C         1.443883         0.320106        -0.230319
 C         1.789586         0.604386         1.190149
 C         3.233334         0.823910         0.749344
 O         4.313615         0.207583         1.461614
 C         3.579336         2.272723         0.297392
 O         2.467919         2.505839        -0.658852
 C         2.009965         1.346480        -1.157619
 C         2.910551         0.236805        -0.671791
 H         0.458663        -1.709856        -0.474853
 H        -0.723756        -0.229280        -0.429924
 H         0.270067        -0.478617        -1.813699
 H         1.096018         1.327558         1.809492
 H         1.578619        -0.383199         1.631736
 H         4.150709        -0.788445         1.545803
 H         3.611057         3.114439         1.018794
 H         4.546605         2.186357        -0.216619
 H         1.430196         1.319772        -2.067693
 H         3.597244        -0.412401        -1.185945
