19
Iteration:  4741charge 0 multiplicity 1
 C         0.111788        -0.492828        -0.632554
 C         1.422334         0.232534        -0.318907
 C         1.846808         0.626859         1.132705
 C         3.339172         0.778151         0.744718
 O         4.331521         0.219730         1.556487
 C         3.533953         2.316826         0.303557
 O         2.447859         2.568304        -0.586268
 C         2.079719         1.227893        -1.236246
 C         2.963025         0.213764        -0.716916
 H        -0.064849        -1.497401        -0.208258
 H        -0.733372         0.065716        -0.094751
 H        -0.048130        -0.602669        -1.713280
 H         1.384754         1.484292         1.608713
 H         1.546199        -0.381915         1.596789
 H         4.228877        -0.778038         1.703190
 H         3.437013         3.055001         1.107115
 H         4.576037         2.454083        -0.165796
 H         1.688290         1.392372        -2.268553
 H         3.337377        -0.549882        -1.461046
