19
Iteration:  3806charge 0 multiplicity 1
 C         0.228202        -0.502781        -0.673462
 C         1.377901         0.298218        -0.241575
 C         1.785564         0.573071         1.252117
 C         3.218796         0.743047         0.738429
 O         4.390003         0.359725         1.446653
 C         3.502937         2.174864         0.348089
 O         2.531066         2.579528        -0.703393
 C         2.071181         1.279452        -1.200500
 C         2.865121         0.129658        -0.685688
 H         0.153779        -1.468800        -0.087632
 H        -0.591538         0.076471        -0.463506
 H         0.339900        -0.837258        -1.723666
 H         1.380164         1.564162         1.489606
 H         1.356637        -0.131332         1.976290
 H         4.198147        -0.522508         1.859894
 H         3.320997         3.025721         1.081805
 H         4.569987         2.212871        -0.019018
 H         1.852877         1.396462        -2.264311
 H         3.466583        -0.599974        -1.253481
