19
Iteration:  1787
 C         0.069883        -0.449988        -0.481625
 C         1.347371         0.373244        -0.157627
 C         1.885902         0.503032         1.282137
 C         3.239252         0.775464         0.645259
 O         4.295488         0.422431         1.446907
 C         3.497923         2.234626         0.339539
 O         2.657864         2.524110        -0.837589
 C         2.142947         1.255660        -1.180247
 C         2.808011         0.078834        -0.783226
 H         0.142980        -1.473443         0.027689
 H        -0.843302        -0.005069        -0.038104
 H         0.092520        -0.688524        -1.564584
 H         1.448843         1.166847         2.010411
 H         1.955757        -0.505784         1.679642
 H         4.565690        -0.557898         1.379735
 H         3.146973         2.884016         1.145463
 H         4.541153         2.227210         0.039646
 H         1.795147         1.293030        -2.217597
 H         3.385381        -0.638048        -1.251164
