19
Iteration:  3938charge 0 multiplicity 1
 C         0.266990        -0.530527        -0.634478
 C         1.407914         0.294832        -0.186418
 C         1.748781         0.522222         1.314070
 C         3.223655         0.800541         0.703471
 O         4.286312         0.284976         1.425873
 C         3.458438         2.240282         0.314190
 O         2.674973         2.617140        -0.813219
 C         2.024244         1.276184        -1.174750
 C         2.908639         0.185085        -0.631905
 H         0.398894        -1.486934        -0.056642
 H        -0.670730        -0.113228        -0.418716
 H         0.237408        -0.693534        -1.756838
 H         1.193665         1.340276         1.864269
 H         1.679087        -0.450351         1.889801
 H         3.965941        -0.657485         1.443914
 H         3.375836         2.996546         1.141026
 H         4.426464         2.309478        -0.043621
 H         1.431678         1.404651        -2.115804
 H         3.502495        -0.453370        -1.265499
