19
Iteration:   948
 C         0.036386        -0.335080        -0.561137
 C         1.367972         0.269324        -0.131840
 C         1.783910         0.886591         1.212518
 C         3.454690         0.841352         0.616528
 O         4.357706         0.272659         1.477291
 C         3.678497         2.250021         0.061860
 O         2.453602         2.402497        -0.665505
 C         2.062713         1.117274        -1.118627
 C         2.847068        -0.004177        -0.579238
 H        -0.143558        -1.259664         0.071522
 H        -0.800849         0.368457        -0.271713
 H        -0.161534        -0.754416        -1.534919
 H         1.289190         1.838727         1.490067
 H         1.761724         0.039472         1.925543
 H         4.147226        -0.695527         1.433162
 H         3.934210         3.045118         0.746860
 H         4.434637         2.252478        -0.710453
 H         1.760506         1.014256        -2.118906
 H         3.405091        -0.870577        -1.077900
