19
Iteration:  1621charge 0 multiplicity 1
 C         0.204562        -0.513505        -0.623623
 C         1.401517         0.358346        -0.169235
 C         1.774374         0.682017         1.273126
 C         3.280185         0.826522         0.755421
 O         4.322534         0.076720         1.321798
 C         3.433163         2.427774         0.378819
 O         2.578037         2.508719        -0.835969
 C         2.117310         1.250327        -1.115774
 C         2.819657         0.074693        -0.565181
 H         0.317060        -1.480529        -0.164342
 H        -0.708997        -0.181173        -0.318481
 H         0.250055        -0.634637        -1.704271
 H         1.281093         1.630780         1.692135
 H         1.721847        -0.099792         2.074744
 H         4.960450        -0.255565         0.677963
 H         3.005677         3.189614         0.975775
 H         4.453166         2.797810         0.074627
 H         1.879732         1.211881        -2.187909
 H         3.438454        -0.739643        -1.158408
