19
Iteration:    62
 C         0.055088        -0.140211        -0.143148
 C         1.368822         0.459265        -0.006004
 C         1.899558         0.920960         1.312024
 C         3.262820         0.759053         0.616766
 O         4.278485         0.254373         1.416553
 C         3.647951         2.125623        -0.002330
 O         2.709887         2.297918        -1.125052
 C         1.976014         1.075358        -1.193024
 C         2.750670        -0.044027        -0.538221
 H        -0.062711        -0.909421         0.675266
 H        -0.717227         0.622057        -0.285315
 H        -0.011369        -0.790983        -1.053383
 H         1.674670         1.974992         1.591973
 H         1.666555         0.265665         2.168421
 H         4.527851        -0.648891         1.200915
 H         3.620693         2.977748         0.710577
 H         4.704954         2.064667        -0.385701
 H         1.467953         0.818891        -2.055870
 H         3.165739        -1.003785        -0.861101
