19
Iteration:  1196
 C         0.116251        -0.464657        -0.469967
 C         1.313061         0.367840        -0.188979
 C         1.887960         0.626671         1.233108
 C         3.333305         0.838307         0.643424
 O         4.274476         0.159204         1.387245
 C         3.518937         2.338457         0.287802
 O         2.653218         2.474164        -0.800108
 C         2.057228         1.208772        -1.229884
 C         2.834302         0.084669        -0.604844
 H         0.117325        -1.408673         0.057907
 H        -0.773824         0.081383        -0.350872
 H         0.017885        -0.722966        -1.513276
 H         1.312533         1.329052         1.911451
 H         1.960994        -0.269557         1.854358
 H         4.781872         0.775979         1.887729
 H         3.123385         3.023455         1.039984
 H         4.510993         2.639735         0.048529
 H         1.689588         1.330494        -2.278074
 H         3.066474        -0.836474        -1.171378
