19
Iteration:  3010
 C         0.225458        -0.519463        -0.639448
 C         1.314207         0.336263        -0.180914
 C         1.835679         0.671920         1.184872
 C         3.332382         0.726024         0.728783
 O         4.423782         0.199697         1.452146
 C         3.563533         2.258228         0.175783
 O         2.455863         2.549726        -0.742438
 C         2.046067         1.296114        -1.153686
 C         2.810493         0.133092        -0.564051
 H         0.370332        -1.547108        -0.415963
 H        -0.789894        -0.119478        -0.290475
 H         0.120847        -0.435218        -1.793095
 H         1.408862         1.560301         1.774295
 H         1.791766        -0.185300         1.947640
 H         4.013278        -0.182755         2.282710
 H         3.522536         2.929573         1.018855
 H         4.510579         2.508524        -0.343801
 H         1.517775         1.375885        -2.091759
 H         3.308142        -0.637821        -1.125794
