19
Iteration:  3798charge 0 multiplicity 1
 C         0.222358        -0.556190        -0.688278
 C         1.358784         0.251335        -0.239357
 C         1.688495         0.641993         1.320863
 C         3.193574         0.776374         0.757299
 O         4.395006         0.343227         1.365007
 C         3.462298         2.202151         0.347941
 O         2.612883         2.597967        -0.708913
 C         2.099110         1.252963        -1.191635
 C         2.876860         0.148483        -0.661816
 H         0.177680        -1.513148        -0.184164
 H        -0.754032        -0.014924        -0.679532
 H         0.356736        -0.662515        -1.791456
 H         1.443469         1.537430         1.815176
 H         1.616417        -0.198914         2.041849
 H         4.315158        -0.585237         1.730298
 H         3.458279         2.850051         1.261770
 H         4.516931         2.332630        -0.113111
 H         1.800039         1.263875        -2.269150
 H         3.504997        -0.581408        -1.114337
