19
Iteration:  3750charge 0 multiplicity 1
 C         0.300176        -0.581381        -0.672406
 C         1.376482         0.368248        -0.185498
 C         1.827773         0.659186         1.298684
 C         3.280643         0.772783         0.713003
 O         4.315269         0.207593         1.495174
 C         3.429384         2.177674         0.347643
 O         2.551610         2.591956        -0.835954
 C         2.088757         1.347521        -1.152265
 C         2.836729         0.158933        -0.676840
 H         0.420386        -1.577047        -0.147390
 H        -0.647649        -0.207364        -0.433878
 H         0.248857        -0.567580        -1.749605
 H         1.283679         1.466564         1.793947
 H         1.676179        -0.280817         1.805431
 H         4.458563        -0.683885         1.244653
 H         2.996358         2.992162         1.004216
 H         4.418107         2.583980         0.070558
 H         1.599440         1.443704        -2.093817
 H         3.378482        -0.708128        -1.171737
