19
Iteration:    45
 C         0.043368        -0.281522        -0.039884
 C         1.359979         0.435015        -0.029320
 C         1.835090         0.925480         1.309204
 C         3.268416         0.774261         0.726884
 O         4.325271         0.245735         1.501169
 C         3.606101         2.033611        -0.008980
 O         2.860053         2.313620        -1.219808
 C         1.992602         1.213590        -1.261668
 C         2.639943        -0.001977        -0.623605
 H        -0.123243        -0.780859         0.908883
 H        -0.707929         0.527936        -0.175440
 H        -0.137382        -1.023374        -0.811281
 H         1.447134         1.875688         1.769429
 H         1.662883         0.134565         2.059944
 H         4.904448        -0.033702         0.785408
 H         3.469943         2.866939         0.676686
 H         4.673912         1.962398        -0.227452
 H         1.400770         1.295274        -2.239266
 H         2.887303        -0.880119        -1.196773
