19
Iteration:     9charge 0 multiplicity 1
 C        -0.098184        -0.299895        -0.118061
 C         1.250104         0.505873        -0.087854
 C         1.951615         0.980302         1.219996
 C         3.337346         0.841141         0.570485
 O         4.265738         0.199630         1.389434
 C         3.751458         2.092048        -0.076812
 O         2.758591         2.325423        -1.035724
 C         2.029676         1.076813        -1.177626
 C         2.693030        -0.068824        -0.423449
 H        -0.242824        -1.054021         0.731273
 H        -0.927964         0.395469         0.016548
 H        -0.195656        -0.770409        -1.130246
 H         1.610278         1.963702         1.834015
 H         1.987507         0.055758         1.886046
 H         4.745457         0.773565         1.992241
 H         3.712767         2.808272         0.736011
 H         4.732290         2.120465        -0.640021
 H         1.634352         0.830015        -2.078856
 H         2.956841        -0.979162        -0.967790
