19
Iteration:  4730
 C         0.032628        -0.479407        -0.665309
 C         1.417478         0.150896        -0.395628
 C         1.803321         0.575314         1.093535
 C         3.313851         0.858037         0.681701
 O         4.414229         0.251399         1.563543
 C         3.593757         2.306280         0.302933
 O         2.405101         2.563911        -0.573306
 C         2.118678         1.317302        -1.147375
 C         2.906590         0.099248        -0.642325
 H         0.066492        -1.439182        -0.135102
 H        -0.696098         0.288523        -0.221009
 H        -0.275846        -0.585684        -1.711150
 H         1.211456         1.382437         1.517457
 H         1.806284        -0.253821         1.921687
 H         4.073872        -0.654827         1.701848
 H         3.602255         2.963351         1.176531
 H         4.522156         2.363822        -0.347522
 H         1.989748         1.379581        -2.251919
 H         3.734422        -0.335589        -1.282643
