19
Iteration:  2324
 C         0.094174        -0.536804        -0.288991
 C         1.368562         0.391170        -0.252378
 C         1.957560         0.491714         1.161471
 C         3.242037         0.805339         0.597504
 O         4.249215         0.318094         1.392858
 C         3.446870         2.259905         0.428530
 O         2.654260         2.574541        -0.792073
 C         2.138204         1.269463        -1.282574
 C         2.880041         0.182516        -0.744689
 H         0.183307        -1.526365         0.303854
 H        -0.921093        -0.107399        -0.039859
 H        -0.126870        -0.966841        -1.321726
 H         1.503616         1.182649         1.930630
 H         1.958652        -0.558807         1.600742
 H         4.061933        -0.666267         1.528779
 H         3.039571         2.729486         1.307165
 H         4.469396         2.560574         0.176387
 H         1.720585         1.379425        -2.248174
 H         3.511290        -0.569865        -1.350947
