19
Iteration:  2671charge 0 multiplicity 1
 C         0.083640        -0.439517        -0.599472
 C         1.451018         0.182976        -0.190689
 C         1.903096         0.638804         1.192323
 C         3.330310         0.791968         0.656405
 O         4.294189         0.377345         1.509862
 C         3.613618         2.219427         0.197056
 O         2.470738         2.539018        -0.622093
 C         2.010078         1.182693        -1.195736
 C         2.847176         0.124341        -0.690370
 H        -0.000612        -1.456683        -0.202809
 H        -0.555990         0.142603        -0.030726
 H        -0.234340        -0.318176        -1.648647
 H         1.613853         1.655713         1.667680
 H         2.042525        -0.176036         1.919120
 H         4.162241        -0.567002         1.549834
 H         3.600295         2.901395         1.017869
 H         4.529085         2.199338        -0.438645
 H         1.700658         1.220004        -2.266088
 H         3.413394        -0.583512        -1.264814
