19
Iteration:  4618
 C         0.185348        -0.573594        -0.556429
 C         1.359616         0.366760        -0.386592
 C         1.788354         0.688781         1.123770
 C         3.271739         0.736916         0.687872
 O         4.394360         0.232183         1.456634
 C         3.445482         2.284442         0.396236
 O         2.562218         2.577239        -0.621228
 C         2.118536         1.324592        -1.194722
 C         2.869337         0.105831        -0.675679
 H         0.527213        -1.623276        -0.138324
 H        -0.748751        -0.433937         0.011103
 H         0.005113        -0.791385        -1.599046
 H         1.232239         1.609032         1.514700
 H         1.494334        -0.171625         1.769783
 H         4.141718        -0.729776         1.641828
 H         3.082104         2.738761         1.340054
 H         4.495361         2.497938         0.044785
 H         2.099796         1.301517        -2.291101
 H         3.289289        -0.458964        -1.457000
