19
Iteration:  3412charge 0 multiplicity 1
 C         0.255099        -0.527625        -0.783092
 C         1.402609         0.237678        -0.184101
 C         1.790510         0.560406         1.202431
 C         3.257354         0.745361         0.722679
 O         4.368907         0.362161         1.421720
 C         3.615480         2.158225         0.191657
 O         2.426474         2.567528        -0.553016
 C         1.973986         1.388684        -1.039149
 C         2.875612         0.151301        -0.677256
 H         0.254279        -1.665738        -0.704816
 H        -0.621025        -0.161605        -0.360003
 H         0.289067        -0.438888        -1.874905
 H         1.463516         1.506107         1.724282
 H         1.896637        -0.289821         1.970080
 H         4.043441        -0.090497         2.264723
 H         3.685079         3.009445         0.804685
 H         4.541701         1.974214        -0.516383
 H         1.742320         1.399452        -2.079948
 H         3.306410        -0.595508        -1.380796
