19
Iteration:  1553
 C         0.018656        -0.445781        -0.569409
 C         1.448126         0.250472        -0.271379
 C         1.986675         0.469558         1.174573
 C         3.305979         0.855700         0.643976
 O         4.160171         0.341762         1.640581
 C         3.672399         2.174691         0.185339
 O         2.473288         2.536757        -0.673315
 C         2.022622         1.302278        -1.144339
 C         2.872858         0.133104        -0.737360
 H        -0.051786        -1.371480        -0.056565
 H        -0.755975         0.108560        -0.180979
 H        -0.072659        -0.703000        -1.643195
 H         1.496501         1.257699         1.807015
 H         2.034121        -0.571576         1.629617
 H         5.019921         0.742552         1.527315
 H         4.049130         2.813799         0.983140
 H         4.514626         2.086055        -0.579934
 H         1.755544         1.513248        -2.175680
 H         3.315392        -0.726177        -1.219844
