19
Iteration:  2360charge 0 multiplicity 1
 C         0.102490        -0.459120        -0.590739
 C         1.359996         0.274549        -0.156932
 C         1.789301         0.579981         1.267904
 C         3.319892         0.748647         0.719986
 O         4.479350         0.346183         1.346533
 C         3.468414         2.246239         0.345230
 O         2.561529         2.536603        -0.792253
 C         1.986542         1.265122        -1.182091
 C         2.913604         0.117588        -0.679412
 H         0.102966        -1.506247        -0.079153
 H        -0.823817         0.151306        -0.244439
 H         0.173807        -0.448262        -1.650212
 H         1.343389         1.567948         1.666636
 H         1.682797        -0.285398         1.981835
 H         4.419474        -0.612930         1.616540
 H         3.253556         2.813268         1.231078
 H         4.495057         2.359898         0.148603
 H         1.390987         1.355856        -2.136963
 H         3.411897        -0.706534        -1.160959
