19
Iteration:  3562
 C         0.197697        -0.470989        -0.662817
 C         1.437244         0.165420        -0.285423
 C         1.843884         0.560973         1.238284
 C         3.274469         0.840872         0.672748
 O         4.330040         0.237779         1.486773
 C         3.601484         2.318525         0.173108
 O         2.383969         2.529550        -0.546357
 C         2.049625         1.268416        -1.124327
 C         2.940868         0.182745        -0.724362
 H         0.147216        -1.563992        -0.401064
 H        -0.688036         0.021365        -0.154314
 H         0.039354        -0.274647        -1.719358
 H         1.324828         1.427414         1.599864
 H         1.755083        -0.248705         1.913984
 H         3.752894        -0.258155         2.142095
 H         3.644348         3.106620         1.020568
 H         4.572719         2.227426        -0.452467
 H         1.701702         1.407913        -2.147263
 H         3.562158        -0.431305        -1.354192
