19
Iteration:  2940charge 0 multiplicity 1
 C         0.131594        -0.446948        -0.516969
 C         1.419204         0.327180        -0.211584
 C         1.831894         0.598090         1.210520
 C         3.296841         0.792624         0.705175
 O         4.387911         0.193760         1.506766
 C         3.448436         2.299318         0.243758
 O         2.492676         2.495190        -0.746694
 C         2.140009         1.254865        -1.230353
 C         2.869743         0.187283        -0.652082
 H        -0.005395        -1.339501         0.216898
 H        -0.724333         0.259015        -0.463975
 H         0.122875        -0.837002        -1.517760
 H         1.468815         1.522177         1.682427
 H         1.524296        -0.365060         1.784906
 H         4.427469        -0.714935         1.077254
 H         3.303746         3.066398         1.108640
 H         4.447053         2.559942        -0.186816
 H         1.639106         1.288659        -2.202975
 H         3.437650        -0.526726        -1.301206
