19
Iteration:  4735charge 0 multiplicity 1
 C         0.051910        -0.482676        -0.654320
 C         1.418835         0.165170        -0.379552
 C         1.839675         0.598221         1.114325
 C         3.324609         0.843742         0.708627
 O         4.384389         0.223698         1.569782
 C         3.584436         2.326990         0.302314
 O         2.418651         2.573001        -0.581093
 C         2.111828         1.258503        -1.191651
 C         2.918414         0.156404        -0.667218
 H        -0.011967        -1.456841        -0.135355
 H        -0.651006         0.157799        -0.114545
 H        -0.157428        -0.614656        -1.753529
 H         1.255127         1.416690         1.610615
 H         1.596851        -0.249917         1.724021
 H         4.188009        -0.708212         1.731681
 H         3.490950         2.989864         1.175236
 H         4.487315         2.347601        -0.263739
 H         1.839499         1.427499        -2.239009
 H         3.500438        -0.366765        -1.402134
