19
Iteration:   150charge 0 multiplicity 1
 C        -0.124312        -0.286885        -0.143374
 C         1.171998         0.498925        -0.059063
 C         1.944791         0.856318         1.253850
 C         3.373733         0.829650         0.656239
 O         4.302755         0.133572         1.600834
 C         3.727926         2.197017        -0.102062
 O         2.764142         2.359417        -1.141162
 C         2.038041         1.099597        -1.178788
 C         2.658396         0.013221        -0.565156
 H         0.128546        -1.299322         0.369932
 H        -1.087350         0.161155         0.170853
 H        -0.282009        -0.668897        -1.205653
 H         1.666673         1.727426         1.815780
 H         1.866987        -0.112846         1.718412
 H         5.204534         0.505077         1.557968
 H         3.741595         3.052407         0.606773
 H         4.775685         2.179041        -0.533695
 H         1.735436         0.988657        -2.152460
 H         3.070455        -0.837946        -1.114049
