19
Iteration:   459
 C         0.034990        -0.385273        -0.155696
 C         1.300880         0.430453        -0.068107
 C         1.741906         0.798245         1.338986
 C         3.180892         0.764327         0.702797
 O         4.428047         0.267338         1.366848
 C         3.669296         2.162365         0.110367
 O         2.848024         2.366159        -1.104612
 C         2.023709         1.221382        -1.277260
 C         2.690080         0.025434        -0.651638
 H         0.292844        -1.233917         0.443811
 H        -0.790270         0.145396         0.133236
 H        -0.238909        -0.630673        -1.183060
 H         1.270374         1.701978         1.808195
 H         1.331589        -0.050101         1.918522
 H         4.349527         0.320212         2.378694
 H         3.767474         3.032278         0.757539
 H         4.768251         2.162460        -0.239924
 H         1.542842         1.239859        -2.172171
 H         2.979907        -0.948180        -1.119074
