19
Iteration:   749
 C         0.065393        -0.444673        -0.354264
 C         1.290835         0.429473        -0.119205
 C         1.796151         0.901329         1.262763
 C         3.361468         0.850605         0.693714
 O         4.373093         0.088361         1.438629
 C         3.593504         2.334524         0.180205
 O         2.726094         2.428885        -1.017092
 C         2.020626         1.158614        -1.179507
 C         2.728916         0.035892        -0.545135
 H         0.108207        -1.122461         0.477064
 H        -1.004348        -0.178402        -0.339961
 H         0.142762        -1.048306        -1.220086
 H         1.215197         1.827462         1.571323
 H         1.589764         0.182811         2.098281
 H         4.701916        -0.585608         0.853809
 H         3.230960         2.893279         1.040096
 H         4.622735         2.376443        -0.128262
 H         1.852349         1.097797        -2.273606
 H         3.058182        -0.823501        -1.156098
