19
Iteration:  2662
 C         0.139999        -0.461075        -0.568166
 C         1.353181         0.222322        -0.208111
 C         1.887406         0.613035         1.286798
 C         3.284340         0.817423         0.637457
 O         4.330099         0.353520         1.505470
 C         3.613632         2.216575         0.184059
 O         2.543167         2.539232        -0.698379
 C         1.965871         1.251889        -1.146909
 C         2.835297         0.111190        -0.705253
 H         0.103763        -1.559780        -0.361163
 H        -0.700906        -0.025469        -0.186922
 H         0.028364        -0.402220        -1.678843
 H         1.349818         1.460264         1.743178
 H         1.798702        -0.283904         1.897335
 H         4.401001        -0.569516         1.721705
 H         3.694556         2.929671         0.957483
 H         4.531216         2.259111        -0.331591
 H         1.688073         1.225302        -2.190754
 H         3.553982        -0.483118        -1.302041
