19
Iteration:  3840
 C         0.030742        -0.489628        -0.573111
 C         1.407880         0.236108        -0.285608
 C         1.975199         0.539598         1.117770
 C         3.370609         0.834692         0.605241
 O         4.212569         0.331414         1.634339
 C         3.617976         2.332710         0.240940
 O         2.386787         2.541956        -0.529198
 C         2.123994         1.213969        -1.274179
 C         2.977572         0.109118        -0.777900
 H        -0.173357        -1.336633         0.115727
 H        -0.767832         0.172172        -0.419748
 H        -0.195608        -0.738145        -1.646391
 H         1.413370         1.330845         1.590316
 H         1.882018        -0.399117         1.708830
 H         3.708773        -0.412077         1.986616
 H         3.517404         2.999639         1.161543
 H         4.675321         2.311493        -0.145901
 H         2.005317         1.340351        -2.393405
 H         3.675674        -0.472568        -1.335436
