19
Iteration:  3659
 C         0.240847        -0.507799        -0.802992
 C         1.372975         0.304866        -0.138057
 C         1.909691         0.599639         1.255984
 C         3.321518         0.788298         0.720789
 O         4.369173         0.292404         1.425002
 C         3.467600         2.284994         0.319896
 O         2.518977         2.547161        -0.710755
 C         1.968662         1.261610        -1.137340
 C         2.814486         0.093938        -0.669529
 H         0.057209        -1.419296        -0.306664
 H        -0.705408         0.150630        -0.836846
 H         0.455366        -0.505400        -1.850873
 H         1.515497         1.389219         2.001892
 H         1.963123        -0.345094         1.846906
 H         3.962293        -0.438264         1.984280
 H         3.345607         2.927647         1.199077
 H         4.511893         2.501688         0.028485
 H         1.578850         1.265903        -2.172418
 H         3.336584        -0.778138        -0.972477
