19
Iteration:  3214charge 0 multiplicity 1
 C         0.218706        -0.596456        -0.416973
 C         1.416458         0.312005        -0.296590
 C         1.891745         0.587519         1.183227
 C         3.280716         0.773060         0.678535
 O         4.154079         0.090729         1.451494
 C         3.496183         2.323260         0.362413
 O         2.564747         2.605264        -0.755236
 C         2.077258         1.349396        -1.247094
 C         2.836070         0.198617        -0.727154
 H         0.388929        -1.614279         0.203466
 H        -0.709797        -0.139737        -0.077193
 H         0.080956        -0.803296        -1.484388
 H         1.470652         1.335421         1.904585
 H         1.976920        -0.387133         1.742315
 H         5.109507         0.488067         1.471698
 H         3.280778         3.128055         1.169613
 H         4.563712         2.601071         0.037807
 H         1.675298         1.405092        -2.282709
 H         3.425726        -0.437426        -1.330631
