19
Iteration:  2278charge 0 multiplicity 1
 C         0.129473        -0.491861        -0.647520
 C         1.360440         0.324366        -0.184782
 C         1.862134         0.707295         1.262006
 C         3.329828         0.749888         0.647866
 O         4.424785         0.276534         1.366615
 C         3.585554         2.255497         0.210571
 O         2.396021         2.511270        -0.616543
 C         2.032864         1.204722        -1.127903
 C         2.883203         0.128158        -0.651655
 H         0.043339        -1.537890        -0.329961
 H        -0.822786         0.010689        -0.390266
 H         0.074742        -0.558998        -1.862067
 H         1.495150         1.578133         1.831839
 H         1.902415        -0.124044         2.048575
 H         4.095025        -0.356361         2.043618
 H         3.489341         2.991756         1.056914
 H         4.558426         2.250550        -0.402372
 H         1.773381         1.428217        -2.186569
 H         3.435722        -0.737345        -0.978357
