19
Iteration:  2539
 C         0.112748        -0.362662        -0.613476
 C         1.390451         0.231378        -0.262295
 C         1.809573         0.487689         1.161932
 C         3.351299         0.792528         0.650664
 O         4.483513         0.461025         1.596295
 C         3.596164         2.135735         0.117843
 O         2.416688         2.532077        -0.524499
 C         1.986723         1.246422        -1.167276
 C         2.831760         0.094589        -0.739411
 H        -0.072996        -1.454777        -0.257694
 H        -0.641874         0.224136        -0.128384
 H        -0.161672        -0.483811        -1.725282
 H         1.315325         1.417346         1.630682
 H         1.815765        -0.269050         1.981149
 H         4.707254        -0.394857         1.917902
 H         3.708561         2.973941         0.817373
 H         4.443170         2.069132        -0.551709
 H         1.717495         1.292507        -2.214441
 H         3.202003        -0.681168        -1.448107
