19
Iteration:  3851charge 0 multiplicity 1
 C         0.016747        -0.447072        -0.549206
 C         1.483743         0.155390        -0.355151
 C         1.863886         0.526144         1.065933
 C         3.332644         0.802981         0.676412
 O         4.213661         0.323049         1.564985
 C         3.570764         2.288106         0.257911
 O         2.415647         2.513907        -0.602409
 C         2.164514         1.282691        -1.155282
 C         3.033351         0.193281        -0.697246
 H        -0.088727        -1.373747         0.051456
 H        -0.703515         0.256925        -0.276819
 H        -0.103051        -0.823038        -1.610436
 H         1.518306         1.423193         1.563983
 H         1.915975        -0.283644         1.824133
 H         3.871562        -0.461909         2.089511
 H         3.731889         3.094861         1.034934
 H         4.376020         2.414153        -0.490234
 H         1.655234         1.211647        -2.143488
 H         3.548629        -0.381828        -1.424556
