19
Iteration:  1717
 C         0.136794        -0.426056        -0.559552
 C         1.451678         0.254834        -0.224622
 C         1.776657         0.673936         1.194285
 C         3.247278         0.849263         0.670304
 O         4.316960         0.129458         1.359246
 C         3.552678         2.269184         0.296017
 O         2.466861         2.547382        -0.729551
 C         2.081477         1.215915        -1.159172
 C         2.922637         0.101628        -0.566019
 H         0.128461        -1.431035        -0.035779
 H        -0.779806         0.164040        -0.222015
 H         0.297539        -0.678013        -1.706858
 H         1.181505         1.416017         1.753900
 H         1.930040        -0.220780         1.873081
 H         4.827982         0.756630         1.957253
 H         3.447670         3.025760         1.076318
 H         4.486418         2.352063        -0.340223
 H         1.736592         1.344514        -2.199611
 H         3.545792        -0.745690        -1.113845
