19
Iteration:   266
 C         0.014113        -0.259883        -0.246179
 C         1.347025         0.360464        -0.052443
 C         1.931870         0.927948         1.212389
 C         3.309235         0.763297         0.631159
 O         4.257708         0.283818         1.518132
 C         3.798712         2.014490        -0.064874
 O         2.631549         2.406592        -0.941342
 C         1.926808         1.168942        -1.164882
 C         2.688516        -0.098202        -0.587200
 H        -0.159057        -1.163942         0.289728
 H        -0.693387         0.483692         0.136130
 H        -0.147638        -0.458680        -1.304856
 H         1.639208         1.938316         1.581065
 H         1.951160         0.074516         1.893534
 H         5.046751         0.827472         1.459470
 H         4.031928         2.769021         0.718097
 H         4.698031         1.771625        -0.686570
 H         1.457742         1.245448        -2.075596
 H         3.126021        -0.984779        -1.043309
