19
Iteration:  3495
 C         0.269074        -0.556495        -0.619700
 C         1.443392         0.286770        -0.226666
 C         1.827414         0.556975         1.216559
 C         3.252348         0.791570         0.679702
 O         4.295012         0.156158         1.271086
 C         3.393659         2.316476         0.443984
 O         2.562445         2.601094        -0.685332
 C         2.049188         1.315026        -1.187125
 C         2.871064         0.134750        -0.642909
 H         0.203785        -1.307351         0.144313
 H        -0.765993        -0.058957        -0.630450
 H         0.201318        -0.968410        -1.603776
 H         1.485941         1.411604         1.778996
 H         1.836818        -0.299930         1.820421
 H         4.620020         0.526294         2.069343
 H         3.045327         3.134830         1.129397
 H         4.445861         2.545681         0.283296
 H         1.727437         1.361642        -2.208171
 H         3.584264        -0.522597        -1.193838
