19
Iteration:   227
 C        -0.164393        -0.257587        -0.319127
 C         1.239750         0.408365        -0.121260
 C         1.917311         0.869553         1.288300
 C         3.366736         0.805939         0.658797
 O         4.537090         0.233359         1.530208
 C         3.778731         2.057108        -0.151500
 O         2.585823         2.432600        -0.967541
 C         1.984753         1.138282        -1.161579
 C         2.699924        -0.046471        -0.463678
 H        -0.461436        -1.082190         0.432777
 H        -0.918504         0.534892        -0.467439
 H        -0.186881        -0.707723        -1.354226
 H         1.540361         1.731742         1.821645
 H         1.794754         0.080878         2.052498
 H         4.337801         0.409128         2.507283
 H         4.114241         2.984167         0.330770
 H         4.581490         1.718295        -0.844402
 H         1.623839         0.905781        -2.223547
 H         3.121563        -0.853500        -1.087091
