19
Iteration:  1472
 C         0.261087        -0.607336        -0.551101
 C         1.371168         0.416504        -0.147863
 C         1.833976         0.545000         1.319516
 C         3.198236         0.840802         0.703963
 O         4.296936         0.159568         1.447538
 C         3.431811         2.309596         0.289227
 O         2.752237         2.589291        -0.929642
 C         2.025221         1.366482        -1.163431
 C         2.757583         0.136492        -0.604874
 H         0.335310        -1.483372         0.132603
 H        -0.723592        -0.049518        -0.581956
 H         0.273965        -0.928704        -1.561899
 H         1.267937         1.271358         1.844483
 H         1.701630        -0.395062         1.815154
 H         4.781731        -0.373460         0.846499
 H         3.052059         2.937627         1.132696
 H         4.523272         2.418844         0.135081
 H         1.594128         1.353396        -2.137049
 H         3.240776        -0.731063        -1.122803
