19
Iteration:   592
 C         0.073962        -0.359801        -0.298446
 C         1.364411         0.448345        -0.055968
 C         1.862960         0.770694         1.387137
 C         3.269207         0.758278         0.661372
 O         4.282637         0.194507         1.355568
 C         3.587710         2.243620         0.132545
 O         2.792789         2.368833        -1.089680
 C         2.007074         1.202865        -1.220782
 C         2.688417         0.014025        -0.586837
 H        -0.206678        -0.926194         0.572527
 H        -0.708836         0.304305        -0.595640
 H         0.380338        -1.100349        -1.084775
 H         1.531526         1.732128         1.891114
 H         1.752760        -0.174950         1.964570
 H         4.823711         0.743290         1.986514
 H         3.118870         2.922329         0.839588
 H         4.745799         2.313223         0.069176
 H         1.468582         1.232515        -2.248437
 H         3.026389        -0.921347        -0.960056
