19
Iteration:  4294charge 0 multiplicity 1
 C         0.115262        -0.426429        -0.837203
 C         1.267985         0.218915        -0.294000
 C         1.932834         0.585467         1.227365
 C         3.463208         0.835103         0.667119
 O         4.405443         0.320949         1.533313
 C         3.559462         2.245618         0.229580
 O         2.373332         2.470615        -0.575645
 C         1.993465         1.279993        -1.070432
 C         2.894753         0.106493        -0.609933
 H        -0.102449        -1.484557        -0.761861
 H        -0.872411         0.192462        -0.679404
 H         0.460387        -0.273398        -1.886323
 H         1.410176         1.311420         1.838618
 H         2.067453        -0.387607         1.826269
 H         4.082894        -0.415631         2.109919
 H         3.408988         2.790254         1.152386
 H         4.496017         2.563748        -0.285651
 H         1.680362         1.369393        -2.081011
 H         3.562495        -0.388976        -1.360221
