19
Iteration:  2537charge 0 multiplicity 1
 C         0.093347        -0.372613        -0.635787
 C         1.376947         0.226850        -0.259718
 C         1.804505         0.483452         1.173666
 C         3.360846         0.774560         0.665132
 O         4.497425         0.467796         1.594511
 C         3.600837         2.152149         0.129539
 O         2.426951         2.535603        -0.534067
 C         1.967898         1.246560        -1.169733
 C         2.841488         0.095863        -0.750320
 H        -0.040423        -1.385789        -0.305828
 H        -0.689846         0.195429        -0.108116
 H        -0.120705        -0.481665        -1.668929
 H         1.355795         1.430561         1.666978
 H         1.754337        -0.194692         2.020696
 H         4.726203        -0.430528         1.933469
 H         3.691315         3.014349         0.822371
 H         4.438657         2.033695        -0.576727
 H         1.704111         1.270902        -2.184384
 H         3.221302        -0.697609        -1.455019
