19
Iteration:  4682
 C         0.166970        -0.437677        -0.774287
 C         1.367326         0.317140        -0.197230
 C         1.890180         0.526738         1.237638
 C         3.374498         0.709542         0.696098
 O         4.414689         0.312606         1.572359
 C         3.434937         2.241498         0.303207
 O         2.526701         2.564715        -0.715249
 C         1.964996         1.316388        -1.157459
 C         2.860594         0.117926        -0.699320
 H         0.012785        -1.434373        -0.251737
 H        -0.636663         0.215632        -0.886406
 H         0.406264        -0.626035        -1.817267
 H         1.369023         1.355825         1.821540
 H         1.750737        -0.373716         1.833258
 H         4.429331        -0.621578         1.811228
 H         3.101333         2.815307         1.227358
 H         4.492689         2.534980        -0.013166
 H         1.666766         1.472033        -2.190540
 H         3.015941        -0.783441        -1.211115
