19
Iteration:  1514charge 0 multiplicity 1
 C         0.121509        -0.453832        -0.645140
 C         1.371816         0.212075        -0.232023
 C         1.835502         0.761995         1.145505
 C         3.349081         0.749193         0.740101
 O         4.370712         0.184433         1.498753
 C         3.530835         2.245649         0.244176
 O         2.385492         2.546706        -0.646415
 C         2.105097         1.254224        -1.196764
 C         2.900571         0.102458        -0.579263
 H        -0.028247        -1.385509        -0.006226
 H        -0.771717         0.268601        -0.529366
 H         0.048735        -0.755847        -1.696316
 H         1.534059         1.765621         1.426964
 H         1.697297         0.124375         1.986909
 H         5.243599         0.205743         1.049567
 H         3.436595         2.972034         1.065542
 H         4.453895         2.308699        -0.306272
 H         1.746511         1.179462        -2.197521
 H         3.341090        -0.763892        -1.204024
