19
Iteration:  4256
 C         0.232711        -0.471858        -0.601213
 C         1.453753         0.315465        -0.288986
 C         1.743101         0.528717         1.157307
 C         3.185353         0.779181         0.708656
 O         4.388231         0.383152         1.431443
 C         3.515814         2.145669         0.325207
 O         2.503429         2.496055        -0.562227
 C         2.093368         1.344765        -1.209602
 C         2.885763         0.163769        -0.700008
 H         0.345879        -1.579552        -0.465555
 H        -0.619466        -0.118309        -0.049681
 H         0.027281        -0.388489        -1.681404
 H         1.177670         1.375318         1.614428
 H         1.606195        -0.368136         1.703289
 H         4.130685        -0.551176         1.718252
 H         3.462611         2.795259         1.247762
 H         4.515175         2.215819        -0.146272
 H         1.689891         1.453321        -2.268980
 H         3.461545        -0.478031        -1.334864
