19
Iteration:  3106
 C         0.142227        -0.424936        -0.557836
 C         1.429621         0.232649        -0.241962
 C         1.858324         0.563037         1.179768
 C         3.315730         0.782829         0.668903
 O         4.265102         0.255347         1.540285
 C         3.606835         2.243883         0.166722
 O         2.429517         2.545189        -0.608797
 C         2.029298         1.264662        -1.151385
 C         2.920338         0.084623        -0.713233
 H        -0.103573        -1.304766        -0.005037
 H        -0.517806         0.437136        -0.461807
 H        -0.022220        -0.684310        -1.620719
 H         1.423889         1.420880         1.643340
 H         1.637453        -0.329876         1.806893
 H         4.991291         0.868313         1.237606
 H         3.663310         2.980504         1.028778
 H         4.580856         2.283798        -0.290181
 H         1.563527         1.234473        -2.135325
 H         3.414491        -0.598756        -1.373831
