19
Iteration:  1075charge 0 multiplicity 1
 C         0.039440        -0.447365        -0.507401
 C         1.337802         0.309732        -0.186977
 C         1.826390         0.758545         1.243640
 C         3.294884         0.817933         0.616672
 O         4.370297         0.231328         1.388015
 C         3.636466         2.256529         0.144905
 O         2.514921         2.475228        -0.710193
 C         2.144605         1.199505        -1.183529
 C         2.841536         0.032574        -0.561579
 H         0.046099        -1.501774        -0.192726
 H        -0.946029        -0.078156        -0.080819
 H        -0.111941        -0.330550        -1.589247
 H         1.403068         1.731606         1.673324
 H         1.852933         0.047648         2.099073
 H         3.953321         0.204993         2.317515
 H         3.758302         2.992892         0.967012
 H         4.574011         2.196574        -0.463178
 H         1.887157         1.126060        -2.210656
 H         3.348610        -0.743420        -1.223051
