19
Iteration:  2650
 C         0.129755        -0.556087        -0.600938
 C         1.340514         0.376766        -0.123702
 C         1.763653         0.561326         1.235172
 C         3.285692         0.759837         0.719484
 O         4.423245         0.348105         1.465298
 C         3.610964         2.230555         0.186451
 O         2.580674         2.534988        -0.813663
 C         2.016588         1.338821        -1.093537
 C         2.826989         0.126623        -0.643796
 H         0.342386        -1.577124        -0.207025
 H        -0.789621        -0.262615        -0.323635
 H         0.182080        -0.590349        -1.708804
 H         1.264857         1.358393         1.852580
 H         1.802727        -0.364589         1.828650
 H         4.152818        -0.615156         1.589527
 H         3.505462         2.962879         0.933988
 H         4.568209         2.141155        -0.247981
 H         1.420403         1.468192        -2.013561
 H         3.183341        -0.609317        -1.342153
