19
Iteration:  3830
 C         0.109222        -0.463184        -0.590547
 C         1.370275         0.261886        -0.339459
 C         1.890972         0.624161         1.102578
 C         3.352695         0.815121         0.625299
 O         4.299876         0.327646         1.659669
 C         3.564274         2.245596         0.261296
 O         2.440924         2.545108        -0.555280
 C         2.065146         1.209051        -1.238602
 C         2.941099         0.077990        -0.781701
 H        -0.002688        -1.356746         0.028157
 H        -0.625850         0.265088        -0.285690
 H         0.178396        -0.890108        -1.616770
 H         1.403127         1.229956         1.813355
 H         1.980493        -0.383640         1.594432
 H         3.857274        -0.427542         2.012988
 H         3.397604         2.882311         1.197150
 H         4.471785         2.711609        -0.315587
 H         1.867651         1.515954        -2.304582
 H         3.473912        -0.670294        -1.319073
