19
Iteration:  1447charge 0 multiplicity 1
 C         0.160667        -0.597750        -0.509298
 C         1.322251         0.462016        -0.184303
 C         1.903333         0.514016         1.231364
 C         3.272827         0.792793         0.642456
 O         4.292615         0.259314         1.604437
 C         3.538568         2.247620         0.369728
 O         2.691394         2.530162        -0.877143
 C         2.030289         1.338719        -1.236260
 C         2.717100         0.185968        -0.746520
 H         0.479486        -1.546354         0.008707
 H        -0.845544        -0.233812        -0.316327
 H         0.048284        -0.773836        -1.613070
 H         1.452557         1.294636         1.832334
 H         1.818440        -0.407687         1.714063
 H         5.036499        -0.169466         1.193188
 H         3.075857         2.865566         1.146005
 H         4.566484         2.466179         0.202980
 H         1.573130         1.278243        -2.228122
 H         3.090499        -0.633629        -1.444897
