19
Iteration:   499
 C         0.033067        -0.333738        -0.322004
 C         1.339570         0.409832        -0.061531
 C         1.878608         0.948153         1.287467
 C         3.357290         0.802922         0.664288
 O         4.253407         0.149134         1.495916
 C         3.745738         2.213654        -0.014895
 O         2.575495         2.392791        -0.949673
 C         2.044416         1.087663        -1.199354
 C         2.750128        -0.051039        -0.572798
 H        -0.123896        -1.435917        -0.098006
 H        -0.847068         0.158226         0.212302
 H        -0.126205        -0.334753        -1.411637
 H         1.632669         1.981217         1.586625
 H         1.769027         0.142527         2.043367
 H         5.117441         0.551861         1.560992
 H         3.655107         3.107334         0.650126
 H         4.722452         2.200891        -0.540683
 H         1.486362         1.068299        -2.121125
 H         3.043590        -0.967895        -1.063332
