19
Iteration:   506
 C         0.092536        -0.280957        -0.355400
 C         1.353132         0.320399        -0.039282
 C         1.912528         0.966198         1.257651
 C         3.357704         0.816245         0.654184
 O         4.273848         0.135219         1.547453
 C         3.657153         2.163312        -0.042903
 O         2.540594         2.371688        -0.914581
 C         2.019250         1.101630        -1.205650
 C         2.774643         0.004463        -0.573973
 H        -0.007560        -1.302198        -0.022777
 H        -0.685030         0.381856         0.125617
 H        -0.245646        -0.220679        -1.407959
 H         1.472096         1.961993         1.380717
 H         1.724467         0.374371         2.155948
 H         5.220727         0.262628         1.442367
 H         3.752293         3.085033         0.512261
 H         4.636770         2.093771        -0.518731
 H         1.431837         1.175577        -2.197498
 H         3.043029        -0.949674        -0.995155
