19
Iteration:  2329charge 0 multiplicity 1
 C         0.083826        -0.525074        -0.300881
 C         1.340225         0.406699        -0.279216
 C         1.954628         0.485573         1.146517
 C         3.273643         0.812025         0.656993
 O         4.293662         0.316115         1.394444
 C         3.397196         2.271486         0.380391
 O         2.653905         2.566566        -0.785748
 C         2.136565         1.289749        -1.279494
 C         2.839793         0.132858        -0.722161
 H         0.283677        -1.477659         0.198138
 H        -0.867550        -0.055540         0.005677
 H         0.022402        -1.028431        -1.243701
 H         1.415610         0.996945         1.982600
 H         2.024309        -0.436727         1.713976
 H         4.106445        -0.606055         1.440817
 H         3.079116         2.741021         1.355829
 H         4.498755         2.406987         0.299659
 H         1.991484         1.434875        -2.412990
 H         3.356597        -0.480145        -1.379463
