19
Iteration:  1554charge 0 multiplicity 1
 C         0.017623        -0.449637        -0.562088
 C         1.431328         0.249945        -0.271511
 C         1.978532         0.460334         1.183962
 C         3.312463         0.854874         0.637688
 O         4.161724         0.338159         1.643928
 C         3.674419         2.179200         0.190243
 O         2.479827         2.548778        -0.680057
 C         2.023233         1.309451        -1.147148
 C         2.874032         0.131658        -0.737541
 H        -0.047587        -1.391000        -0.067062
 H        -0.753608         0.099348        -0.194514
 H        -0.072507        -0.697848        -1.644394
 H         1.468365         1.270205         1.821626
 H         2.042741        -0.590568         1.604786
 H         5.039458         0.765227         1.497045
 H         4.028993         2.841560         0.980453
 H         4.523652         2.071431        -0.574883
 H         1.766057         1.465504        -2.184748
 H         3.367712        -0.767775        -1.238944
