19
Iteration:  4498charge 0 multiplicity 1
 C         0.109953        -0.553799        -0.535437
 C         1.432027         0.277017        -0.277872
 C         1.772685         0.454521         1.142412
 C         3.235125         0.863671         0.766503
 O         4.350076         0.202643         1.417289
 C         3.435138         2.385114         0.469081
 O         2.597665         2.508184        -0.779394
 C         2.132558         1.350907        -1.260661
 C         2.939278         0.252289        -0.674848
 H        -0.076161        -1.351957         0.294400
 H        -0.830809         0.126849        -0.573238
 H         0.037599        -0.988871        -1.536254
 H         1.378467         1.162033         1.931225
 H         1.897990        -0.522964         1.699078
 H         4.236862        -0.727621         1.333987
 H         2.978171         3.023576         1.247915
 H         4.455386         2.712533         0.243645
 H         1.862781         1.451635        -2.347908
 H         3.599729        -0.525746        -1.117876
