19
Iteration:  2041charge 0 multiplicity 1
 C         0.175946        -0.594315        -0.414145
 C         1.408757         0.325668        -0.249302
 C         1.841111         0.653137         1.311571
 C         3.275506         0.801303         0.708423
 O         4.349573         0.078259         1.297180
 C         3.442813         2.345996         0.325647
 O         2.562339         2.632114        -0.774786
 C         2.042575         1.306671        -1.268620
 C         2.905104         0.189215        -0.687752
 H         0.199503        -1.253401         0.517433
 H        -0.850910        -0.115883        -0.444868
 H         0.286047        -0.990996        -1.368606
 H         1.427637         1.472994         1.914206
 H         1.639236        -0.248607         1.858464
 H         4.178476        -0.826862         1.698522
 H         3.002924         2.898727         1.141338
 H         4.403468         2.569028        -0.053694
 H         1.886643         1.457409        -2.347002
 H         3.518099        -0.571379        -1.059043
