19
Iteration:  1921
 C         0.175484        -0.550998        -0.436279
 C         1.364389         0.350854        -0.257839
 C         1.837620         0.654780         1.198678
 C         3.304434         0.794846         0.633953
 O         4.371517         0.217890         1.432338
 C         3.456508         2.292041         0.381397
 O         2.597870         2.519076        -0.804759
 C         2.055763         1.306937        -1.198578
 C         2.851328         0.142199        -0.736295
 H         0.453360        -1.518580         0.184333
 H        -0.789397        -0.108605         0.028516
 H        -0.224859        -0.713904        -1.431805
 H         1.412653         1.530897         1.759836
 H         1.811247        -0.185514         1.885243
 H         4.222793        -0.725334         1.617007
 H         3.130393         2.997337         1.249510
 H         4.500114         2.583744         0.020047
 H         1.584614         1.315550        -2.165084
 H         3.229409        -0.765562        -1.282887
