19
Iteration:  3260charge 0 multiplicity 1
 C         0.112830        -0.509945        -0.789440
 C         1.343727         0.244884        -0.203538
 C         1.870484         0.663286         1.188011
 C         3.303384         0.860218         0.711455
 O         4.448526         0.329043         1.425847
 C         3.556151         2.254303         0.198335
 O         2.419248         2.500140        -0.508189
 C         2.055365         1.239151        -1.101614
 C         2.829980         0.085118        -0.620309
 H         0.006346        -1.582287        -0.389114
 H        -0.824037         0.039227        -0.485761
 H         0.084957        -0.397929        -1.937917
 H         1.341682         1.543234         1.498162
 H         1.811384        -0.101280         2.029563
 H         4.474283        -0.694580         1.466156
 H         3.736158         2.951758         1.162859
 H         4.572357         2.312102        -0.336330
 H         1.952792         1.375308        -2.181302
 H         3.472826        -0.668517        -1.157458
