19
Iteration:  4516charge 0 multiplicity 1
 C         0.217158        -0.502784        -0.608607
 C         1.380551         0.247648        -0.274667
 C         1.783178         0.597878         1.206105
 C         3.293594         0.738071         0.691143
 O         4.410424         0.276002         1.439543
 C         3.349315         2.234108         0.448743
 O         2.630967         2.636581        -0.743098
 C         2.055094         1.312589        -1.173545
 C         2.874370         0.121442        -0.734692
 H         0.200519        -1.251037         0.233392
 H        -0.654101         0.081987        -0.680619
 H         0.264326        -1.031741        -1.608702
 H         1.225877         1.466937         1.673545
 H         1.465706        -0.191469         1.860401
 H         4.336517        -0.660803         1.497643
 H         2.935382         2.776991         1.336417
 H         4.437254         2.521889         0.390326
 H         1.670678         1.399045        -2.164072
 H         3.404694        -0.609225        -1.402638
