19
Iteration:   901
 C         0.225650        -0.451138        -0.272395
 C         1.314433         0.458808        -0.118176
 C         1.773244         0.704282         1.278045
 C         3.208027         0.800155         0.653361
 O         4.209809         0.193957         1.414109
 C         3.620327         2.162747         0.122389
 O         2.761812         2.457258        -0.922641
 C         2.023747         1.272019        -1.218205
 C         2.774694         0.072968        -0.682481
 H         0.378090        -1.392041         0.257196
 H        -0.806294        -0.011672        -0.034166
 H         0.215026        -0.916667        -1.248145
 H         1.421580         1.644255         1.619367
 H         1.867945        -0.174766         1.859659
 H         4.867928         0.818356         1.682929
 H         3.446290         2.684453         1.097938
 H         4.675549         2.323539        -0.028230
 H         1.491144         1.299389        -2.217236
 H         2.993598        -0.851434        -1.079168
