19
Iteration:  2817charge 0 multiplicity 1
 C         0.041318        -0.473880        -0.505260
 C         1.495566         0.153748        -0.245021
 C         1.756744         0.748944         1.137310
 C         3.387190         0.826353         0.667384
 O         4.358208         0.210770         1.477270
 C         3.644821         2.286506         0.279798
 O         2.381731         2.527766        -0.657579
 C         2.088696         1.204337        -1.177747
 C         2.945940         0.154572        -0.720643
 H        -0.071676        -1.461688         0.001643
 H        -0.594158         0.115798         0.051583
 H        -0.310796        -0.431863        -1.516535
 H         1.152578         1.660185         1.300686
 H         1.564832         0.031303         1.997160
 H         4.054633        -0.720714         1.696483
 H         3.528936         3.121531         1.023393
 H         4.584826         2.359582        -0.320035
 H         1.838927         1.323147        -2.247958
 H         3.473761        -0.538822        -1.393113
