19
Iteration:  1821
 C         0.048416        -0.360983        -0.529960
 C         1.428352         0.171878        -0.229749
 C         1.780085         0.678145         1.128694
 C         3.364683         0.832632         0.703307
 O         4.449191         0.274920         1.539192
 C         3.578660         2.262156         0.197962
 O         2.344604         2.462645        -0.635914
 C         2.096193         1.205214        -1.176662
 C         2.944708         0.108975        -0.720098
 H        -0.098572        -1.316607         0.054721
 H        -0.667886         0.472058        -0.243278
 H        -0.234551        -0.477838        -1.590398
 H         1.131646         1.498484         1.483241
 H         1.653573        -0.160008         1.808874
 H         4.361194        -0.735260         1.574159
 H         3.679231         3.196659         0.828018
 H         4.527810         2.414803        -0.331246
 H         1.909696         1.213498        -2.266756
 H         3.525010        -0.601381        -1.308125
