19
Iteration:  4633charge 0 multiplicity 1
 C         0.259363        -0.588684        -0.550242
 C         1.384956         0.330351        -0.274587
 C         1.654272         0.574539         1.164858
 C         3.199959         0.756108         0.743181
 O         4.366224         0.225936         1.320830
 C         3.470334         2.225550         0.504774
 O         2.585623         2.649209        -0.792698
 C         2.162019         1.357013        -1.212849
 C         2.882002         0.155441        -0.632717
 H         0.488903        -1.426201         0.023640
 H        -0.633666         0.019209        -0.173629
 H        -0.037342        -0.816950        -1.582496
 H         1.301190         1.448839         1.667453
 H         1.478572        -0.327540         1.799095
 H         4.304083        -0.697072         1.611452
 H         3.184984         2.953861         1.242963
 H         4.506585         2.389609         0.253891
 H         1.736727         1.352385        -2.198560
 H         3.667442        -0.530551        -1.075879
