19
Iteration:   200charge 0 multiplicity 1
 C        -0.001611        -0.213372        -0.194413
 C         1.332893         0.421886        -0.076089
 C         1.866161         1.019743         1.295910
 C         3.277855         0.786606         0.618138
 O         4.379202         0.267246         1.296639
 C         3.685080         2.181169         0.094528
 O         2.681283         2.294940        -0.971362
 C         2.068754         1.009451        -1.217131
 C         2.694431        -0.118348        -0.539776
 H        -0.254410        -0.902370         0.547494
 H        -0.744955         0.564822        -0.371803
 H        -0.083510        -0.781514        -1.102741
 H         1.633599         2.133069         1.413307
 H         1.711017         0.353203         2.192131
 H         4.098284        -0.518133         1.859680
 H         3.521799         2.990727         0.835622
 H         4.734369         2.286108        -0.214796
 H         1.584750         0.897534        -2.187078
 H         3.136686        -0.988745        -1.028880
