19
Iteration:   561
 C        -0.036495        -0.360442        -0.268225
 C         1.282658         0.387172        -0.192637
 C         1.895242         0.811210         1.201416
 C         3.305504         0.782268         0.684156
 O         4.413745         0.327542         1.457767
 C         3.739823         2.119177         0.083489
 O         2.652822         2.428437        -0.945074
 C         2.000022         1.173622        -1.242664
 C         2.702926        -0.019355        -0.541832
 H        -0.251119        -0.861605         0.643653
 H        -0.850297         0.376919        -0.480990
 H         0.088463        -0.976176        -1.157879
 H         1.514116         1.603026         1.860912
 H         1.677735        -0.089848         1.776370
 H         4.203834        -0.076303         2.295130
 H         3.596754         2.898482         0.830595
 H         4.866902         2.061349        -0.354246
 H         1.707245         1.191693        -2.333403
 H         3.091193        -0.863386        -1.044162
