19
Iteration:   910
 C         0.156020        -0.470584        -0.349495
 C         1.371467         0.411439        -0.137662
 C         1.835352         0.766397         1.306189
 C         3.252483         0.784896         0.645114
 O         4.203429         0.200409         1.464803
 C         3.609684         2.130287         0.169732
 O         2.694673         2.463423        -0.900050
 C         2.017166         1.239410        -1.231460
 C         2.789324         0.114435        -0.692598
 H         0.339853        -1.192938         0.418781
 H        -0.772864        -0.011036        -0.051084
 H         0.109102        -0.801322        -1.399892
 H         1.367343         1.595514         1.798048
 H         1.795748         0.035373         2.092728
 H         5.058348         0.593058         1.318058
 H         3.476915         3.017829         0.821413
 H         4.684015         1.996918        -0.195348
 H         1.522729         1.304808        -2.251564
 H         3.047842        -0.795962        -1.176094
