19
Iteration:   325charge 0 multiplicity 1
 C         0.080620        -0.322178        -0.122401
 C         1.376437         0.436509        -0.016268
 C         1.810227         0.903108         1.315653
 C         3.201926         0.808806         0.651049
 O         4.283924         0.174703         1.304932
 C         3.656126         2.199429         0.072819
 O         2.757017         2.322282        -1.090897
 C         2.104370         1.167961        -1.218924
 C         2.739016        -0.020899        -0.609892
 H        -0.005651        -1.202934         0.512317
 H        -0.706935         0.328684         0.126802
 H        -0.146757        -0.503997        -1.155522
 H         1.471050         1.857088         1.706888
 H         1.659071         0.344735         2.268142
 H         3.820703        -0.356448         2.031220
 H         3.495622         3.075241         0.716778
 H         4.639633         2.197956        -0.341881
 H         1.634375         1.244205        -2.311997
 H         3.248617        -0.934880        -0.926819
