19
Iteration:  3614
 C         0.271145        -0.565713        -0.502778
 C         1.414753         0.297218        -0.315617
 C         1.747137         0.594063         1.190669
 C         3.189912         0.768832         0.665511
 O         4.348427         0.333248         1.359792
 C         3.421907         2.235014         0.447381
 O         2.640221         2.555703        -0.712741
 C         2.123014         1.331769        -1.195433
 C         2.851517         0.163543        -0.655817
 H         0.347782        -1.398644         0.136674
 H        -0.759594        -0.059381        -0.400331
 H         0.158417        -0.878068        -1.552222
 H         1.042249         1.274248         1.789129
 H         1.673543        -0.416062         1.678456
 H         4.314276        -0.649015         1.119310
 H         3.225248         3.003847         1.155697
 H         4.521595         2.253029         0.344700
 H         1.546151         1.510305        -2.073993
 H         3.266432        -0.665520        -1.224244
