19
Iteration:  4155
 C         0.084662        -0.533572        -0.819912
 C         1.320478         0.229413        -0.341849
 C         1.823359         0.629419         1.182514
 C         3.400117         0.770157         0.701592
 O         4.487388         0.382623         1.526118
 C         3.586979         2.184242         0.233674
 O         2.421041         2.550062        -0.507183
 C         2.035299         1.309787        -1.058477
 C         2.813043         0.098674        -0.666127
 H        -0.008602        -1.483590        -0.194778
 H        -0.789365        -0.015548        -0.637315
 H         0.245770        -0.821000        -1.886703
 H         1.342384         1.569853         1.603731
 H         1.645054        -0.223062         1.777211
 H         4.152734        -0.315096         2.059539
 H         3.750026         2.952470         1.015453
 H         4.451919         2.194392        -0.496771
 H         1.708741         1.412432        -2.060953
 H         3.579883        -0.362481        -1.313047
