19
Iteration:  2428charge 0 multiplicity 1
 C         0.167015        -0.590210        -0.483214
 C         1.403338         0.271667        -0.273205
 C         1.850402         0.610658         1.173001
 C         3.297482         0.747601         0.616680
 O         4.299396         0.358294         1.436242
 C         3.668860         2.177832         0.230963
 O         2.480784         2.588382        -0.563860
 C         1.968682         1.356946        -1.162979
 C         2.857557         0.156862        -0.752775
 H         0.221479        -1.493564         0.299783
 H        -0.783650         0.023333        -0.318695
 H         0.120713        -1.018139        -1.538699
 H         1.417076         1.574101         1.621645
 H         1.695044        -0.235681         1.886234
 H         4.080737        -0.584955         1.650008
 H         3.754778         2.870683         1.123133
 H         4.614895         2.179800        -0.320189
 H         1.722973         1.331042        -2.234048
 H         3.490016        -0.475555        -1.371356
