19
Iteration:  3932charge 0 multiplicity 1
 C         0.261030        -0.585350        -0.679012
 C         1.439392         0.309344        -0.144018
 C         1.704208         0.520333         1.318883
 C         3.202173         0.833713         0.740598
 O         4.351672         0.263310         1.421477
 C         3.419855         2.289356         0.307486
 O         2.731448         2.577792        -0.806593
 C         2.010529         1.344971        -1.141074
 C         2.840558         0.166840        -0.679237
 H         0.350012        -1.542731        -0.216403
 H        -0.775650        -0.060098        -0.461775
 H         0.337057        -0.652458        -1.741088
 H         1.183968         1.318240         1.788386
 H         1.716109        -0.305758         2.026539
 H         4.083430        -0.701251         1.359809
 H         3.175524         3.124422         0.952572
 H         4.564450         2.278459        -0.124222
 H         1.434103         1.286622        -2.028595
 H         3.455310        -0.660364        -1.140448
