19
Iteration:  3228
 C         0.232413        -0.514270        -0.523344
 C         1.422508         0.336962        -0.201171
 C         1.826214         0.611536         1.172177
 C         3.261546         0.830704         0.662925
 O         4.266130         0.106764         1.506037
 C         3.480839         2.288511         0.271229
 O         2.485300         2.557991        -0.667865
 C         2.062429         1.303806        -1.192053
 C         2.928973         0.190243        -0.757439
 H         0.377341        -1.494402        -0.013455
 H        -0.634590        -0.062647         0.015924
 H         0.051625        -0.817782        -1.610253
 H         1.360283         1.488137         1.489292
 H         1.666356        -0.290620         1.814607
 H         5.112079         0.119973         1.033532
 H         3.240769         2.865469         1.247282
 H         4.465295         2.323622        -0.193468
 H         1.700145         1.432620        -2.220170
 H         3.432192        -0.685350        -1.221665
