19
Iteration:  2409charge 0 multiplicity 1
 C         0.155226        -0.488391        -0.662603
 C         1.376267         0.279397        -0.218527
 C         1.843426         0.666567         1.213472
 C         3.340879         0.773870         0.724509
 O         4.495160         0.273442         1.510942
 C         3.557626         2.226560         0.066617
 O         2.349105         2.517782        -0.549860
 C         2.007814         1.312125        -1.130265
 C         2.842955         0.152576        -0.669234
 H         0.118928        -1.357185        -0.135882
 H        -0.684594         0.064090        -0.440784
 H         0.262751        -0.574493        -1.768990
 H         1.355718         1.504984         1.642080
 H         1.768286        -0.228410         1.802837
 H         4.234356        -0.589812         1.861534
 H         3.962398         2.908170         0.829668
 H         4.357111         1.947092        -0.638237
 H         1.653592         1.284505        -2.117339
 H         3.350493        -0.600427        -1.353076
