19
Iteration:  2764charge 0 multiplicity 1
 C         0.205115        -0.543476        -0.612866
 C         1.259063         0.378543        -0.105730
 C         1.849529         0.553850         1.345896
 C         3.237640         0.770298         0.642714
 O         4.490493         0.299932         1.481883
 C         3.497599         2.266885         0.253394
 O         2.763859         2.530580        -0.890339
 C         1.894403         1.334816        -1.191013
 C         2.682385         0.160514        -0.631455
 H         0.243741        -1.396870         0.021152
 H        -0.894886        -0.266150        -0.781831
 H         0.606374        -0.838224        -1.550017
 H         1.537633         1.332971         1.970017
 H         1.760286        -0.508570         1.699097
 H         4.471389        -0.701160         1.657766
 H         3.063327         2.968849         1.029732
 H         4.502084         2.233536         0.106213
 H         1.273723         1.628741        -2.106343
 H         3.245591        -0.703081        -0.990190
