19
Iteration:  3197
 C         0.182378        -0.668694        -0.437968
 C         1.314046         0.323109        -0.213711
 C         1.822265         0.533367         1.160202
 C         3.275302         0.895310         0.605026
 O         4.278499         0.064857         1.388096
 C         3.497540         2.322002         0.349866
 O         2.687781         2.647796        -0.777460
 C         2.044096         1.363502        -1.180668
 C         2.883127         0.200882        -0.697451
 H         0.433182        -1.452169         0.170407
 H        -0.813205        -0.242793        -0.117267
 H        -0.095525        -1.117669        -1.432059
 H         1.223287         1.221947         1.796266
 H         1.734089        -0.429425         1.683202
 H         4.489668         0.781522         2.105544
 H         3.217048         2.927834         1.218370
 H         4.526066         2.586293         0.226217
 H         1.715870         1.426152        -2.215981
 H         3.268187        -0.653358        -1.304134
