19
Iteration:  2392charge 0 multiplicity 1
 C         0.157335        -0.399201        -0.769902
 C         1.359811         0.255840        -0.130536
 C         1.872484         0.657097         1.265521
 C         3.387636         0.858174         0.636681
 O         4.444877         0.300672         1.405007
 C         3.640766         2.273883         0.158265
 O         2.344983         2.527746        -0.560029
 C         1.978586         1.168753        -1.132281
 C         2.862249         0.012428        -0.562898
 H        -0.025609        -1.576656        -0.552553
 H        -0.898472         0.107528        -0.527724
 H         0.248154        -0.339309        -1.852671
 H         1.399817         1.551866         1.827100
 H         1.917572        -0.250206         1.945825
 H         4.158157        -0.563980         1.766707
 H         3.581880         3.056647         0.889895
 H         4.455009         2.475645        -0.542777
 H         1.523079         1.356124        -2.150623
 H         3.278249        -0.908818        -0.957186
