19
Iteration:   938charge 0 multiplicity 1
 C         0.000664        -0.403550        -0.486780
 C         1.329059         0.303484        -0.153173
 C         1.820762         0.820519         1.176412
 C         3.411058         0.822136         0.608371
 O         4.348694         0.207578         1.550417
 C         3.698282         2.238513         0.025096
 O         2.497672         2.511092        -0.734018
 C         2.049177         1.146002        -1.156154
 C         2.840791         0.032919        -0.508121
 H        -0.023700        -1.346803         0.152027
 H        -0.915635         0.216482        -0.336243
 H        -0.017556        -0.714371        -1.584415
 H         1.210213         1.741641         1.487808
 H         1.865690         0.152335         2.114354
 H         4.655229        -0.598130         1.100472
 H         3.587852         3.042059         0.752160
 H         4.623883         2.338009        -0.557743
 H         1.819113         1.105784        -2.191135
 H         3.235559        -0.871520        -1.123808
