19
Iteration:   933charge 0 multiplicity 1
 C         0.007830        -0.452477        -0.452921
 C         1.317801         0.312830        -0.171725
 C         1.845220         0.802242         1.181339
 C         3.356950         0.821712         0.652680
 O         4.335202         0.186123         1.558784
 C         3.697757         2.246059         0.016725
 O         2.517414         2.526184        -0.777788
 C         2.047571         1.178481        -1.179454
 C         2.826481         0.032751        -0.513840
 H        -0.100666        -1.305491         0.178577
 H        -0.893403         0.169468        -0.294299
 H         0.126413        -0.594921        -1.510027
 H         1.397746         1.711947         1.535101
 H         1.834307         0.185438         2.039838
 H         4.895321        -0.472901         1.054716
 H         3.593012         2.943393         0.872643
 H         4.700771         2.298257        -0.462115
 H         1.772009         1.181413        -2.262526
 H         3.213892        -0.730562        -1.100016
