19
Iteration:  3086charge 0 multiplicity 1
 C         0.115263        -0.501590        -0.458223
 C         1.345653         0.357589        -0.269259
 C         1.889928         0.585898         1.154907
 C         3.334070         0.828308         0.638261
 O         4.302214         0.196454         1.500933
 C         3.506513         2.198449         0.326309
 O         2.519289         2.529873        -0.718237
 C         2.120883         1.307824        -1.237731
 C         2.810239         0.120320        -0.732519
 H         0.270716        -1.295984         0.222589
 H        -0.886657         0.033654        -0.251522
 H         0.178380        -1.049510        -1.483915
 H         1.380776         1.392296         1.760398
 H         1.899892        -0.469319         1.627521
 H         4.806513         0.937465         1.823907
 H         3.285345         2.892004         1.197966
 H         4.579105         2.384518        -0.106825
 H         1.861871         1.534512        -2.288647
 H         3.384022        -0.662302        -1.153190
