19
Iteration:  1138charge 0 multiplicity 1
 C         0.117172        -0.483260        -0.491062
 C         1.334367         0.336384        -0.220307
 C         1.858524         0.695380         1.172252
 C         3.306820         0.800085         0.601600
 O         4.307626         0.289594         1.495507
 C         3.653002         2.272330         0.231594
 O         2.581486         2.523405        -0.724312
 C         2.005857         1.243883        -1.195488
 C         2.776039        -0.004832        -0.581776
 H        -0.019324        -1.220425         0.329010
 H        -0.789511         0.074222        -0.412272
 H         0.295342        -0.931902        -1.518245
 H         1.367693         1.568270         1.601642
 H         2.047032        -0.144363         1.848176
 H         4.632909        -0.576272         1.061337
 H         3.459396         3.008787         1.010478
 H         4.643648         2.478502        -0.214972
 H         1.673273         1.390312        -2.199229
 H         3.219566        -0.886732        -1.107935
