19
Iteration:  3711charge 0 multiplicity 1
 C         0.014670        -0.566500        -0.555140
 C         1.392570         0.257620        -0.387917
 C         1.762475         0.549054         1.019234
 C         3.324288         0.858505         0.717721
 O         4.347689         0.342018         1.560730
 C         3.631443         2.296419         0.266051
 O         2.436997         2.504050        -0.564310
 C         2.149456         1.317333        -1.175590
 C         2.960472         0.133499        -0.697672
 H         0.045720        -1.508740         0.009907
 H        -0.774372         0.149584        -0.103209
 H        -0.257870        -0.815315        -1.633076
 H         1.240486         1.350734         1.655033
 H         1.891200        -0.272757         1.782328
 H         3.996417        -0.613897         1.522078
 H         3.640937         2.762740         1.225313
 H         4.607624         2.475773        -0.187368
 H         1.940714         1.343352        -2.251433
 H         3.669064        -0.468690        -1.262848
