19
Iteration:  3246
 C         0.173788        -0.487477        -0.646627
 C         1.413887         0.223353        -0.274660
 C         1.811974         0.713788         1.195055
 C         3.336417         0.750578         0.668784
 O         4.361517         0.268436         1.475066
 C         3.582787         2.232281         0.313927
 O         2.383312         2.539763        -0.590726
 C         2.045270         1.298046        -1.188031
 C         2.886030         0.099998        -0.603210
 H         0.168689        -1.627190        -0.360756
 H        -0.714392         0.014762        -0.320520
 H         0.113141        -0.506845        -1.724147
 H         1.410727         1.650781         1.736488
 H         1.688121        -0.159198         1.878392
 H         4.662535        -0.393673         0.865335
 H         3.550074         3.042283         1.057379
 H         4.525918         2.370647        -0.336871
 H         1.671494         1.274750        -2.240516
 H         3.380165        -0.479368        -1.338208
