19
Iteration:  2335
 C         0.105216        -0.514264        -0.353814
 C         1.304200         0.375599        -0.293864
 C         1.882476         0.485629         1.164505
 C         3.304482         0.807281         0.692550
 O         4.382815         0.307347         1.408409
 C         3.377101         2.287502         0.347480
 O         2.645939         2.555436        -0.779950
 C         2.122343         1.342795        -1.266754
 C         2.794630         0.098351        -0.696783
 H         0.437455        -1.328004         0.382219
 H        -0.793145         0.029069         0.070121
 H         0.009297        -0.936851        -1.398067
 H         1.352765         1.097853         1.936186
 H         2.029936        -0.561414         1.607566
 H         4.233546        -0.652798         1.444524
 H         3.060979         2.895640         1.193777
 H         4.481493         2.429597         0.295227
 H         2.147640         1.351889        -2.314472
 H         3.275958        -0.627968        -1.465034
