19
Iteration:  4839
 C         0.196452        -0.397266        -0.683884
 C         1.459435         0.312799        -0.313429
 C         1.916205         0.632819         1.237955
 C         3.345256         0.789245         0.714708
 O         4.297224         0.278905         1.548834
 C         3.506065         2.220364         0.273627
 O         2.386512         2.479055        -0.571586
 C         2.074749         1.252838        -1.266280
 C         2.898330         0.077789        -0.727753
 H        -0.070485        -1.336408        -0.160243
 H        -0.601667         0.340626        -0.539236
 H         0.190949        -0.596758        -1.739224
 H         1.491853         1.483579         1.702069
 H         1.959788        -0.316937         1.806770
 H         4.028462        -0.582888         1.981291
 H         3.336324         2.878598         1.123923
 H         4.492083         2.589298        -0.090989
 H         1.401706         1.376582        -2.162132
 H         3.453408        -0.542636        -1.436200
