19
Iteration:  2823charge 0 multiplicity 1
 C         0.043091        -0.447539        -0.460600
 C         1.504421         0.109912        -0.279990
 C         1.794913         0.744857         1.103596
 C         3.371380         0.801140         0.639757
 O         4.357529         0.198373         1.525505
 C         3.598307         2.304954         0.238277
 O         2.387939         2.508849        -0.635630
 C         2.045080         1.262166        -1.159952
 C         2.979937         0.153706        -0.724325
 H        -0.017084        -1.546496        -0.174853
 H        -0.717755         0.269349         0.112949
 H        -0.258916        -0.492434        -1.579083
 H         1.234032         1.698608         1.324077
 H         1.561905         0.082548         1.904355
 H         4.013794        -0.648826         1.825126
 H         3.656032         3.101553         0.944747
 H         4.594848         2.430142        -0.301311
 H         1.887680         1.304329        -2.219766
 H         3.455382        -0.584245        -1.414892
