19
Iteration:   210
 C        -0.099633        -0.237261        -0.284705
 C         1.262735         0.387371        -0.049381
 C         1.904734         0.989081         1.226897
 C         3.367905         0.787101         0.675822
 O         4.464214         0.240020         1.358675
 C         3.698480         2.133862         0.023551
 O         2.645697         2.312756        -0.972144
 C         2.033358         1.061172        -1.216174
 C         2.722221        -0.029784        -0.503178
 H        -0.326038        -0.838689         0.574568
 H        -0.907775         0.522284        -0.269834
 H        -0.106020        -0.839924        -1.184938
 H         1.664772         2.038880         1.613714
 H         1.552577         0.361721         2.079441
 H         4.167878        -0.248960         2.179963
 H         3.543462         2.911356         0.789453
 H         4.681320         2.220270        -0.490620
 H         1.631935         1.027686        -2.245281
 H         3.053292        -1.023039        -0.784885
