19
Iteration:  1808charge 0 multiplicity 1
 C         0.041897        -0.373132        -0.478967
 C         1.435170         0.211254        -0.325512
 C         1.795332         0.518611         1.154847
 C         3.328072         0.799011         0.723498
 O         4.395919         0.338666         1.525718
 C         3.564303         2.274351         0.211803
 O         2.517041         2.531935        -0.744323
 C         2.012821         1.262646        -1.186471
 C         2.925920         0.109895        -0.612205
 H        -0.135734        -1.351889         0.125710
 H        -0.682035         0.327882         0.013138
 H        -0.204938        -0.644067        -1.587704
 H         1.279500         1.329443         1.631508
 H         1.747858        -0.363837         1.794446
 H         4.458604        -0.573690         1.327500
 H         3.412714         2.885128         1.099716
 H         4.514148         2.276953        -0.386777
 H         1.712160         1.236061        -2.246654
 H         3.432753        -0.592731        -1.179449
