19
Iteration:  4341
 C         0.196821        -0.596040        -0.565802
 C         1.376771         0.325908        -0.398134
 C         1.729287         0.564175         1.171835
 C         3.198049         0.774465         0.698237
 O         4.397142         0.262871         1.373574
 C         3.463941         2.289717         0.437654
 O         2.591347         2.581084        -0.656748
 C         2.077346         1.337053        -1.151107
 C         2.935282         0.211056        -0.668190
 H         0.137951        -1.323610         0.355602
 H        -0.708667        -0.040517        -0.425436
 H         0.182375        -1.273528        -1.482404
 H         1.181996         1.443330         1.721144
 H         1.518003        -0.412021         1.585599
 H         4.331876        -0.676508         1.429932
 H         3.260583         2.844930         1.354731
 H         4.528906         2.348782         0.182754
 H         1.839431         1.177740        -2.235607
 H         3.565301        -0.372051        -1.316812
