19
Iteration:   712charge 0 multiplicity 1
 C         0.122779        -0.379756        -0.359067
 C         1.345698         0.408909        -0.055014
 C         1.812680         0.872484         1.302231
 C         3.245385         0.837840         0.644917
 O         4.233912         0.167758         1.407814
 C         3.675975         2.136043         0.076812
 O         2.651482         2.441361        -0.885707
 C         2.068876         1.139418        -1.197667
 C         2.758459         0.008080        -0.624987
 H         0.421539        -1.337208         0.128160
 H        -0.731775         0.113090         0.147813
 H        -0.038901        -0.600720        -1.470046
 H         1.310376         1.842796         1.559450
 H         1.765922         0.044542         2.023860
 H         4.865415         0.793072         1.756639
 H         3.678857         3.099987         0.644201
 H         4.667685         2.029597        -0.394848
 H         1.685777         0.931003        -2.177634
 H         3.225486        -0.862379        -1.087975
