19
Iteration:  2187charge 0 multiplicity 1
 C         0.169704        -0.532288        -0.372898
 C         1.368009         0.366228        -0.316968
 C         1.873690         0.597178         1.191853
 C         3.221296         0.775257         0.716755
 O         4.409670         0.148021         1.345417
 C         3.398821         2.341900         0.426258
 O         2.548905         2.558899        -0.791643
 C         2.114724         1.323630        -1.264039
 C         2.901065         0.145124        -0.714680
 H         0.310537        -1.247906         0.452303
 H        -0.607869         0.147745        -0.017085
 H        -0.025117        -1.169612        -1.300293
 H         1.440943         1.451828         1.731487
 H         1.649759        -0.221960         1.858592
 H         4.116450        -0.727909         1.564137
 H         2.891504         2.957064         1.220592
 H         4.474142         2.621804         0.087804
 H         1.650944         1.308164        -2.214112
 H         3.579416        -0.546489        -1.315299
