19
Iteration:  4716
 C         0.080576        -0.413473        -0.689782
 C         1.417879         0.237452        -0.315009
 C         1.727020         0.530647         1.088005
 C         3.305572         0.743741         0.668892
 O         4.344748         0.407629         1.435573
 C         3.564575         2.197252         0.252279
 O         2.442437         2.552821        -0.471244
 C         2.098353         1.279531        -1.126220
 C         3.036672         0.091512        -0.617687
 H        -0.273183        -1.357162        -0.131981
 H        -0.700261         0.204966        -0.339903
 H         0.024486        -0.633504        -1.716019
 H         1.157578         1.401176         1.533435
 H         1.790837        -0.344227         1.757429
 H         4.258788        -0.486917         1.868664
 H         3.615548         2.949144         1.094735
 H         4.527399         2.313526        -0.369897
 H         2.024706         1.346472        -2.169286
 H         3.590677        -0.670152        -1.140351
