19
Iteration:  4869
 C         0.020877        -0.373548        -0.633799
 C         1.450782         0.169353        -0.360449
 C         1.809583         0.490139         1.111259
 C         3.342099         0.803725         0.728620
 O         4.345937         0.303189         1.560775
 C         3.563161         2.284706         0.243885
 O         2.376340         2.595179        -0.587826
 C         2.174597         1.223619        -1.185927
 C         3.020749         0.107218        -0.640048
 H        -0.258767        -1.399914        -0.117143
 H        -0.675090         0.413067        -0.471857
 H        -0.221755        -0.521192        -1.677796
 H         1.090299         1.331987         1.441791
 H         1.855065        -0.231491         1.920531
 H         4.210676        -0.606622         1.712229
 H         3.446908         2.906174         1.157517
 H         4.478421         2.371230        -0.338628
 H         1.576043         1.387137        -2.100323
 H         3.743368        -0.400950        -1.312820
