19
Iteration:  1056charge 0 multiplicity 1
 C         0.058867        -0.491334        -0.460579
 C         1.339394         0.382327        -0.187208
 C         1.860884         0.836316         1.200365
 C         3.319802         0.803533         0.735310
 O         4.406382         0.197155         1.361577
 C         3.522688         2.277301         0.311247
 O         2.623694         2.452023        -0.872284
 C         2.044278         1.168350        -1.233413
 C         2.829109         0.085626        -0.583101
 H         0.221579        -1.569312        -0.103624
 H        -0.714742         0.252880         0.015180
 H        -0.257610        -0.576196        -1.508874
 H         1.446186         1.702110         1.737213
 H         1.754525        -0.017388         1.872148
 H         4.031188        -0.657838         1.759850
 H         3.097569         3.051407         1.030546
 H         4.619905         2.558780         0.115196
 H         1.665884         1.098405        -2.254702
 H         3.342626        -0.890895        -0.957577
