19
Iteration:  4200charge 0 multiplicity 1
 C         0.325385        -0.613345        -0.602877
 C         1.468310         0.324823        -0.195291
 C         1.819082         0.607873         1.262324
 C         3.195919         0.785310         0.683762
 O         4.216815         0.136465         1.347358
 C         3.472101         2.307630         0.438834
 O         2.594172         2.619626        -0.794649
 C         1.979230         1.355021        -1.159193
 C         2.935037         0.202863        -0.636880
 H         0.201892        -1.487137         0.118381
 H        -0.551208        -0.083184        -0.475459
 H         0.416342        -0.964696        -1.656940
 H         1.443551         1.582375         1.679989
 H         1.698987        -0.207580         1.890592
 H         4.254907        -0.756516         1.043901
 H         3.033311         2.811194         1.342382
 H         4.510100         2.658039         0.245702
 H         1.661591         1.249664        -2.209506
 H         3.393285        -0.451657        -1.376335
