19
Iteration:  4692charge 0 multiplicity 1
 C         0.201794        -0.379686        -0.775269
 C         1.411282         0.310753        -0.244623
 C         1.835392         0.530071         1.250442
 C         3.311451         0.753481         0.760540
 O         4.447077         0.373317         1.551721
 C         3.485479         2.166726         0.345421
 O         2.448429         2.488423        -0.626409
 C         2.038227         1.340794        -1.235985
 C         2.801279         0.068780        -0.773569
 H        -0.137011        -1.266743        -0.197266
 H        -0.659272         0.166648        -0.582766
 H         0.359731        -0.710638        -1.815311
 H         1.409136         1.424204         1.800468
 H         1.910848        -0.287678         1.918658
 H         4.311145        -0.529342         1.789459
 H         3.354072         3.007854         1.088565
 H         4.474530         2.259205        -0.165081
 H         1.665507         1.403223        -2.281257
 H         3.345165        -0.657202        -1.341478
