19
Iteration:  1517
 C         0.122943        -0.436878        -0.633474
 C         1.376069         0.207633        -0.220794
 C         1.836960         0.749567         1.135211
 C         3.334455         0.749213         0.724109
 O         4.377781         0.192361         1.524140
 C         3.559890         2.251328         0.239725
 O         2.361191         2.541512        -0.648486
 C         2.094122         1.260325        -1.186849
 C         2.907148         0.078444        -0.612123
 H         0.031801        -1.362715        -0.033745
 H        -0.769067         0.274566        -0.581593
 H         0.039654        -0.705255        -1.671291
 H         1.504384         1.722614         1.437176
 H         1.613857         0.118145         2.008592
 H         5.247556         0.233739         1.168304
 H         3.532251         2.900132         1.145872
 H         4.452750         2.301044        -0.418287
 H         1.789375         1.206510        -2.261162
 H         3.328121        -0.668355        -1.207821
