19
Iteration:   767charge 0 multiplicity 1
 C         0.087173        -0.439473        -0.311197
 C         1.327146         0.404077        -0.098582
 C         1.860395         0.781071         1.257833
 C         3.236029         0.779612         0.665705
 O         4.312227         0.274584         1.395346
 C         3.623054         2.189534         0.130456
 O         2.714011         2.435133        -0.943000
 C         2.070293         1.198577        -1.211569
 C         2.742948         0.070684        -0.607880
 H        -0.219941        -1.060908         0.576579
 H        -0.757099         0.324634        -0.500482
 H         0.077809        -1.085186        -1.280906
 H         1.503948         1.701159         1.803043
 H         1.711403        -0.068927         1.945897
 H         4.130180        -0.633141         1.667083
 H         3.469403         3.044853         0.845177
 H         4.734105         2.300267        -0.112593
 H         1.604865         1.203249        -2.147657
 H         3.346833        -0.805095        -1.006527
