19
Iteration:  3974
 C         0.090861        -0.488343        -0.606781
 C         1.416946         0.268011        -0.395801
 C         1.806791         0.675889         1.072029
 C         3.397147         0.807696         0.675153
 O         4.368885         0.287878         1.599637
 C         3.541682         2.301363         0.254853
 O         2.396288         2.521030        -0.511849
 C         2.105331         1.237060        -1.250605
 C         2.940316         0.069269        -0.733014
 H         0.148414        -1.352985         0.003120
 H        -0.719871         0.140142        -0.069123
 H        -0.128340        -0.978164        -1.541655
 H         1.349675         1.568847         1.458974
 H         1.479623        -0.226764         1.716607
 H         4.067336        -0.410554         2.275286
 H         3.487556         2.576015         1.298389
 H         4.536417         2.412220        -0.205148
 H         1.784370         1.589533        -2.193810
 H         3.545410        -0.623726        -1.400322
