19
Iteration:   705charge 0 multiplicity 1
 C         0.128918        -0.379782        -0.371492
 C         1.331556         0.379529        -0.125004
 C         1.793511         0.832022         1.226361
 C         3.254834         0.812918         0.660061
 O         4.280166         0.189998         1.475203
 C         3.758653         2.138377         0.013896
 O         2.636654         2.457365        -0.877034
 C         2.012105         1.164215        -1.173399
 C         2.760961         0.025921        -0.588255
 H         0.146725        -1.330118         0.140442
 H        -0.658066         0.124851         0.234516
 H        -0.206389        -0.499037        -1.364216
 H         1.413997         1.727337         1.793102
 H         1.883976         0.032708         2.002994
 H         4.590108         0.941148         1.993925
 H         3.650241         2.990645         0.675962
 H         4.639829         1.873445        -0.579035
 H         1.516206         1.010298        -2.112952
 H         3.247557        -0.830946        -1.133991
