19
Iteration:  2948charge 0 multiplicity 1
 C         0.087705        -0.430102        -0.516323
 C         1.396429         0.242938        -0.298113
 C         1.834198         0.588083         1.175306
 C         3.320190         0.847872         0.749642
 O         4.379971         0.223027         1.543897
 C         3.549234         2.273107         0.281981
 O         2.445432         2.526490        -0.747571
 C         2.100572         1.286631        -1.229018
 C         2.863620         0.139364        -0.695201
 H         0.085369        -1.349237         0.228069
 H        -0.702620         0.270499        -0.331318
 H        -0.050783        -0.979289        -1.460674
 H         1.416071         1.491801         1.651415
 H         1.864064        -0.300840         1.811099
 H         4.577817        -0.724569         1.319289
 H         3.500316         3.004719         1.111748
 H         4.530559         2.326852        -0.271066
 H         1.630324         1.436943        -2.202318
 H         3.496606        -0.456490        -1.278762
