19
Iteration:  4145charge 0 multiplicity 1
 C         0.087809        -0.478931        -0.794783
 C         1.391882         0.192395        -0.225367
 C         1.859442         0.579847         1.162902
 C         3.269333         0.744332         0.667350
 O         4.432083         0.397768         1.552761
 C         3.592876         2.217744         0.193067
 O         2.424153         2.538793        -0.467278
 C         2.018341         1.296371        -1.103994
 C         2.909676         0.095342        -0.742666
 H        -0.045291        -1.510481        -0.336830
 H        -0.754008         0.087023        -0.699256
 H         0.143912        -0.623143        -1.896078
 H         1.349472         1.513152         1.494990
 H         1.898019        -0.045131         1.966536
 H         4.191127        -0.173626         2.282027
 H         3.847269         2.882782         1.046716
 H         4.440877         2.241511        -0.532272
 H         1.632418         1.455281        -2.083388
 H         3.423659        -0.491729        -1.539850
