19
Iteration:   830
 C        -0.005597        -0.253642        -0.462136
 C         1.376255         0.251849        -0.094572
 C         1.900250         0.809771         1.253301
 C         3.345123         0.790759         0.653645
 O         4.317329         0.351015         1.527202
 C         3.632724         2.166782         0.036555
 O         2.468008         2.390836        -0.732157
 C         2.113756         1.126532        -1.228252
 C         2.823050        -0.039041        -0.618615
 H        -0.346479        -1.212508        -0.055178
 H        -0.573044         0.566897        -0.162657
 H        -0.014781        -0.339557        -1.548828
 H         1.520909         1.777620         1.490306
 H         1.736038         0.033261         1.974333
 H         4.887778        -0.125564         0.924845
 H         3.738366         2.924710         0.806071
 H         4.600452         2.175242        -0.516874
 H         1.659203         1.102932        -2.178512
 H         3.374722        -0.930348        -0.989485
