19
Iteration:  3177charge 0 multiplicity 1
 C         0.228562        -0.603141        -0.533545
 C         1.335367         0.325530        -0.209814
 C         1.808467         0.600901         1.230018
 C         3.225578         0.742470         0.741909
 O         4.375919         0.226069         1.327382
 C         3.505472         2.295780         0.357267
 O         2.618018         2.552981        -0.768789
 C         2.047916         1.367925        -1.170204
 C         2.795842         0.149601        -0.725655
 H         0.306258        -1.591214         0.001973
 H        -0.726061        -0.054140        -0.277757
 H         0.055831        -0.850099        -1.601695
 H         1.430442         1.558246         1.801867
 H         1.558811        -0.277510         1.852650
 H         4.451566         0.046591         2.287232
 H         3.285872         2.908043         1.210968
 H         4.591968         2.463165         0.027676
 H         1.716091         1.371883        -2.195148
 H         3.441482        -0.503222        -1.398467
