19
Iteration:  1709charge 0 multiplicity 1
 C         0.148170        -0.442185        -0.556356
 C         1.386018         0.268403        -0.221607
 C         1.779150         0.651613         1.166557
 C         3.351037         0.782771         0.709890
 O         4.306619         0.155703         1.454028
 C         3.568503         2.254792         0.181668
 O         2.429628         2.564722        -0.656732
 C         2.053159         1.238132        -1.178344
 C         2.966014         0.121138        -0.643559
 H         0.026782        -1.353037         0.043693
 H        -0.693871         0.150776        -0.327988
 H         0.053130        -0.689878        -1.606526
 H         1.171403         1.440138         1.577463
 H         1.635013        -0.117715         1.901972
 H         4.934886         0.794759         1.838799
 H         3.547626         2.913473         1.006418
 H         4.572759         2.273123        -0.226357
 H         1.756659         1.225039        -2.252160
 H         3.565695        -0.581903        -1.273767
