19
Iteration:   543
 C        -0.081042        -0.302837        -0.347863
 C         1.337752         0.339821        -0.122101
 C         1.817518         0.847916         1.204470
 C         3.397333         0.841543         0.598869
 O         4.348657         0.313591         1.504508
 C         3.734493         2.204252        -0.051266
 O         2.587228         2.377091        -0.770813
 C         2.101501         1.092746        -1.202560
 C         2.773617        -0.031278        -0.566456
 H        -0.228508        -0.984060         0.546522
 H        -0.830568         0.517358        -0.140730
 H        -0.250488        -0.869601        -1.273645
 H         1.380835         1.795328         1.512770
 H         1.830613         0.114389         2.039838
 H         4.124025        -0.617729         1.567464
 H         3.899220         3.012977         0.667492
 H         4.530833         2.059357        -0.687393
 H         1.765562         1.030871        -2.180747
 H         3.215834        -0.932123        -1.013999
