19
Iteration:   115
 C        -0.007466        -0.158190        -0.264599
 C         1.362632         0.357419        -0.012807
 C         1.824931         0.986983         1.255420
 C         3.245329         0.769763         0.673436
 O         4.427685         0.338532         1.398693
 C         3.731358         1.929219        -0.142371
 O         2.634228         2.348768        -0.852412
 C         2.052809         1.088745        -1.157988
 C         2.685366        -0.104087        -0.617627
 H        -0.152994        -1.209817         0.086588
 H        -0.803883         0.446486         0.210272
 H        -0.143022        -0.129810        -1.355474
 H         1.568197         1.977784         1.418161
 H         1.576390         0.489120         2.172343
 H         4.412655         0.802730         2.245965
 H         4.067096         2.795568         0.487501
 H         4.546410         1.496447        -0.727701
 H         1.464755         0.956313        -2.057245
 H         3.120193        -0.986899        -1.093883
