19
Iteration:   242charge 0 multiplicity 1
 C        -0.036565        -0.193356        -0.356018
 C         1.306000         0.381982         0.015339
 C         1.882073         0.777530         1.350064
 C         3.343057         0.774842         0.680962
 O         4.326914         0.328118         1.498396
 C         3.853192         2.023162        -0.263070
 O         2.605024         2.401898        -0.881122
 C         1.987238         1.120050        -1.151533
 C         2.675906        -0.034808        -0.584069
 H        -0.248537        -0.995375         0.398816
 H        -0.866715         0.555089        -0.156470
 H        -0.071772        -0.702029        -1.337139
 H         1.609237         1.782360         1.773001
 H         1.958214        -0.151774         1.908283
 H         4.358818         1.050113         2.134807
 H         4.321423         2.823678         0.329689
 H         4.617053         1.605954        -1.015806
 H         1.568359         1.132681        -2.177634
 H         3.091303        -0.897112        -1.099964
