19
Iteration:  4214
 C         0.245729        -0.644308        -0.552510
 C         1.378765         0.229294        -0.220683
 C         1.815151         0.637207         1.184499
 C         3.353263         0.847178         0.681882
 O         4.291275         0.023754         1.476923
 C         3.392007         2.410186         0.430189
 O         2.658362         2.601309        -0.789348
 C         2.021556         1.345745        -1.169996
 C         2.834965         0.303159        -0.752993
 H         0.371837        -1.533249         0.021786
 H        -0.774327        -0.175648        -0.433257
 H         0.222224        -0.878743        -1.603748
 H         1.219569         1.329006         1.698156
 H         1.880371        -0.216122         1.895389
 H         4.249273        -0.896329         1.103930
 H         2.951117         3.060008         1.227254
 H         4.416508         2.788707         0.274443
 H         1.650396         1.455706        -2.233854
 H         3.505607        -0.389107        -1.220646
