19
Iteration:  3330
 C         0.149195        -0.570840        -0.484182
 C         1.381928         0.274521        -0.290565
 C         1.805301         0.545807         1.087736
 C         3.293379         0.837773         0.648667
 O         4.307963         0.104405         1.404733
 C         3.409187         2.349869         0.423006
 O         2.596520         2.565502        -0.676206
 C         2.078036         1.300473        -1.218559
 C         2.890145         0.210368        -0.665031
 H         0.277035        -1.287255         0.291520
 H        -0.834996        -0.007547        -0.263774
 H         0.105211        -1.032595        -1.489775
 H         1.355158         1.319015         1.713286
 H         1.926362        -0.344904         1.643018
 H         5.162343         0.604410         1.566758
 H         3.018019         3.092468         1.261435
 H         4.503181         2.646535         0.222298
 H         1.853672         1.338968        -2.296158
 H         3.451644        -0.345974        -1.385740
