19
Iteration:  1912charge 0 multiplicity 1
 C         0.154961        -0.572549        -0.413429
 C         1.394918         0.368058        -0.197168
 C         1.805653         0.576712         1.220918
 C         3.211506         0.791946         0.645119
 O         4.354975         0.260554         1.390758
 C         3.521749         2.344498         0.340514
 O         2.655377         2.532935        -0.778994
 C         2.071077         1.322776        -1.233202
 C         2.779045         0.102156        -0.764411
 H         0.565129        -1.478867         0.047484
 H        -0.789467        -0.249829         0.033871
 H         0.216915        -0.908387        -1.417845
 H         1.443601         1.464042         1.814990
 H         1.832567        -0.355295         1.764588
 H         4.039463        -0.630041         1.665660
 H         3.200620         3.088650         1.134766
 H         4.610770         2.547127         0.216065
 H         1.648859         1.554871        -2.196270
 H         3.182063        -0.839535        -1.106078
