19
Iteration:  1790charge 0 multiplicity 1
 C         0.056187        -0.459013        -0.487403
 C         1.352768         0.364075        -0.153279
 C         1.889294         0.501209         1.260704
 C         3.229336         0.779820         0.642769
 O         4.298783         0.412286         1.454415
 C         3.508960         2.215776         0.328859
 O         2.637191         2.549234        -0.827759
 C         2.147719         1.229672        -1.175534
 C         2.815433         0.081860        -0.768084
 H         0.110820        -1.399316         0.013720
 H        -0.751760         0.100681        -0.013672
 H         0.021584        -0.678063        -1.498564
 H         1.400398         1.236106         1.973292
 H         1.974548        -0.531489         1.604801
 H         4.595051        -0.479605         1.393715
 H         3.172030         2.982438         1.079043
 H         4.547771         2.182892         0.027311
 H         1.806479         1.347999        -2.198044
 H         3.529889        -0.612231        -1.252886
