19
Iteration:  1378
 C         0.137300        -0.369440        -0.694278
 C         1.405268         0.223750        -0.207603
 C         1.899202         0.680254         1.221704
 C         3.401983         0.808937         0.676456
 O         4.360665         0.199810         1.432414
 C         3.582249         2.292488         0.181957
 O         2.323209         2.520237        -0.627938
 C         2.100284         1.169332        -1.169201
 C         2.844999         0.010812        -0.588819
 H        -0.091225        -1.300510        -0.176443
 H        -0.550042         0.397908        -0.388079
 H        -0.051999        -0.382544        -1.803703
 H         1.461244         1.631072         1.601909
 H         1.862425        -0.073657         2.078853
 H         4.234717         0.430916         2.408187
 H         3.605202         2.998296         1.004874
 H         4.384732         2.495472        -0.481914
 H         1.724623         1.337154        -2.184935
 H         3.400915        -0.775887        -1.037982
