19
Iteration:  3184
 C         0.172248        -0.626621        -0.464599
 C         1.360619         0.320297        -0.274047
 C         1.781722         0.581011         1.200051
 C         3.247243         0.685710         0.704994
 O         4.344999         0.171904         1.339640
 C         3.523903         2.368754         0.374864
 O         2.665943         2.565122        -0.776788
 C         2.051125         1.372371        -1.169320
 C         2.783915         0.202592        -0.704850
 H         0.358959        -1.510155         0.066253
 H        -0.819735        -0.300967        -0.135555
 H         0.297340        -0.879179        -1.553752
 H         1.402447         1.418282         1.684174
 H         1.852090        -0.343635         1.815496
 H         4.350272         0.452712         2.244137
 H         3.168627         3.090859         1.165487
 H         4.501699         2.456136         0.019849
 H         1.570934         1.479729        -2.168706
 H         3.474630        -0.423445        -1.223029
