19
Iteration:  1482charge 0 multiplicity 1
 C         0.250590        -0.520503        -0.571082
 C         1.342371         0.343561        -0.123909
 C         1.732515         0.592642         1.273482
 C         3.264912         0.801495         0.697346
 O         4.258720         0.186254         1.361671
 C         3.515903         2.322343         0.379307
 O         2.664254         2.561512        -0.891365
 C         2.109597         1.246618        -1.156488
 C         2.789032         0.173519        -0.587581
 H         0.207962        -1.435258         0.105330
 H        -0.824356        -0.144865        -0.440432
 H         0.583141        -0.896724        -1.515943
 H         1.344049         1.412742         1.805168
 H         1.906994        -0.236592         1.885014
 H         4.758503        -0.247274         0.682922
 H         3.123702         3.129425         1.011089
 H         4.559455         2.592069         0.217317
 H         1.658736         1.146930        -2.105626
 H         3.232745        -0.712681        -1.168768
