19
Iteration:  3183charge 0 multiplicity 1
 C         0.178364        -0.621178        -0.474130
 C         1.358289         0.321375        -0.268431
 C         1.783276         0.586793         1.204887
 C         3.244014         0.684284         0.714479
 O         4.347531         0.182568         1.336819
 C         3.524343         2.362777         0.372940
 O         2.659582         2.560485        -0.776942
 C         2.051586         1.374165        -1.168324
 C         2.782312         0.194645        -0.711306
 H         0.351851        -1.556322         0.073049
 H        -0.795335        -0.271730        -0.155762
 H         0.277037        -0.869987        -1.555069
 H         1.423871         1.422454         1.685182
 H         1.824967        -0.339067         1.823196
 H         4.381923         0.385745         2.263585
 H         3.170649         3.078824         1.189191
 H         4.512696         2.451361         0.008130
 H         1.583707         1.466118        -2.176600
 H         3.469876        -0.407796        -1.229318
