19
Iteration:  2057charge 0 multiplicity 1
 C         0.222201        -0.577598        -0.395812
 C         1.405422         0.285040        -0.201544
 C         1.801582         0.681132         1.151581
 C         3.285816         0.804245         0.696784
 O         4.439952         0.043290         1.371197
 C         3.444976         2.321819         0.383186
 O         2.469020         2.584202        -0.791345
 C         2.151754         1.335393        -1.257499
 C         2.822343         0.243770        -0.661032
 H         0.237126        -1.270330         0.425809
 H        -0.604398         0.113731        -0.243877
 H         0.001842        -1.071540        -1.492605
 H         1.345231         1.623219         1.510795
 H         1.722568        -0.123061         1.945147
 H         3.915836        -0.745789         1.201272
 H         3.177954         3.077273         1.158915
 H         4.525492         2.597938         0.105533
 H         1.605679         1.274152        -2.198976
 H         3.306620        -0.556920        -1.346278
