19
Iteration:  1384
 C         0.119312        -0.342593        -0.708530
 C         1.422538         0.230958        -0.250141
 C         1.905928         0.692040         1.211973
 C         3.394524         0.825402         0.698726
 O         4.380858         0.149737         1.445680
 C         3.584697         2.316596         0.142982
 O         2.284129         2.501937        -0.620862
 C         2.085952         1.178212        -1.131293
 C         2.893869         0.000662        -0.555780
 H        -0.066553        -1.309923        -0.202397
 H        -0.625443         0.420200        -0.238837
 H        -0.134784        -0.388926        -1.740267
 H         1.296914         1.608804         1.487059
 H         1.610378        -0.049537         1.999115
 H         4.349441         0.639536         2.256685
 H         3.597108         2.983528         1.053452
 H         4.526728         2.432657        -0.526244
 H         1.697090         1.231239        -2.134896
 H         3.606104        -0.738598        -1.109466
