19
Iteration:  1368
 C         0.123531        -0.395159        -0.630939
 C         1.417874         0.233070        -0.131113
 C         1.885651         0.691075         1.236418
 C         3.292436         0.793788         0.625244
 O         4.372425         0.270020         1.432502
 C         3.525176         2.250495         0.215123
 O         2.461283         2.495103        -0.628363
 C         2.069925         1.224915        -1.203895
 C         2.857514         0.072448        -0.658776
 H        -0.204614        -1.381913        -0.272466
 H        -0.744015         0.207629        -0.542479
 H         0.400286        -0.612017        -1.712210
 H         1.572969         1.569602         1.746426
 H         2.026797        -0.183776         1.842363
 H         4.024909         0.092839         2.334153
 H         3.507302         2.990456         0.999622
 H         4.462196         2.337153        -0.317406
 H         1.755197         1.146498        -2.259382
 H         3.174633        -0.773155        -1.171973
