19
Iteration:  3887charge 0 multiplicity 1
 C         0.211577        -0.518106        -0.696669
 C         1.322642         0.331740        -0.235449
 C         1.818753         0.669818         1.231991
 C         3.243072         0.740781         0.744670
 O         4.396910         0.339112         1.412206
 C         3.468796         2.253047         0.366109
 O         2.505706         2.502829        -0.709842
 C         2.168332         1.259175        -1.179731
 C         2.868338         0.108973        -0.636267
 H         0.318591        -1.458762        -0.201849
 H        -0.834462        -0.102338        -0.485301
 H         0.252623        -0.658655        -1.779651
 H         1.391108         1.494439         1.740789
 H         1.602160        -0.227087         1.841707
 H         4.244000        -0.619353         1.667042
 H         3.196917         2.931231         1.170722
 H         4.541508         2.446846        -0.092524
 H         1.840810         1.505468        -2.181004
 H         3.169853        -0.837495        -1.116909
