19
Iteration:  4879charge 0 multiplicity 1
 C         0.083764        -0.390637        -0.659090
 C         1.463246         0.163042        -0.338484
 C         1.784418         0.537156         1.172776
 C         3.206487         0.807569         0.735298
 O         4.321301         0.378367         1.462199
 C         3.549905         2.273994         0.292433
 O         2.476323         2.538004        -0.566471
 C         2.104745         1.254965        -1.192233
 C         3.017854         0.066844        -0.684655
 H        -0.166799        -1.303978         0.030439
 H        -0.550748         0.355434        -0.185653
 H        -0.141927        -0.592767        -1.712321
 H         1.232513         1.308970         1.816715
 H         1.648575        -0.434482         1.651722
 H         4.226894        -0.566457         1.556544
 H         3.580155         2.950374         1.201953
 H         4.548263         2.292333        -0.166871
 H         1.936652         1.406648        -2.271499
 H         3.778320        -0.544437        -1.226571
