19
Iteration:  3445charge 0 multiplicity 1
 C         0.165709        -0.576202        -0.617205
 C         1.375506         0.282477        -0.302002
 C         1.838085         0.608363         1.152371
 C         3.331982         0.769474         0.633274
 O         4.382608         0.175506         1.432998
 C         3.499498         2.335230         0.344821
 O         2.405429         2.548560        -0.585710
 C         2.113545         1.337049        -1.160807
 C         2.875500         0.171494        -0.705758
 H         0.129736        -1.608911        -0.094114
 H        -0.773677        -0.136601        -0.443097
 H         0.119921        -0.681360        -1.722922
 H         1.463000         1.514253         1.711332
 H         1.845998        -0.331788         1.839373
 H         4.438450         0.350159         2.410967
 H         3.275974         2.992789         1.177627
 H         4.631781         2.451599        -0.010864
 H         1.995884         1.392281        -2.230501
 H         3.243268        -0.579646        -1.396670
