19
Iteration:  1156
 C         0.119811        -0.491659        -0.436122
 C         1.413503         0.341752        -0.177050
 C         1.771365         0.768014         1.261234
 C         3.258249         0.816952         0.735014
 O         4.401140         0.191835         1.324497
 C         3.458481         2.250845         0.307336
 O         2.618063         2.479441        -0.833594
 C         2.104070         1.213951        -1.224375
 C         2.865981         0.161758        -0.652609
 H         0.010306        -1.310465         0.346211
 H        -0.774322         0.264525        -0.452951
 H         0.182138        -1.079681        -1.369081
 H         1.456113         1.759016         1.617854
 H         1.427432        -0.036155         1.938119
 H         4.046845        -0.760008         1.445532
 H         3.249606         2.879119         1.211550
 H         4.551459         2.395514        -0.003885
 H         1.693041         1.085914        -2.245150
 H         3.341221        -0.590549        -1.175500
