19
Iteration:   586
 C         0.077218        -0.337600        -0.278868
 C         1.319915         0.436076        -0.080209
 C         1.862370         0.744473         1.412556
 C         3.220773         0.744646         0.664774
 O         4.324677         0.224206         1.365778
 C         3.586483         2.174828         0.087891
 O         2.786544         2.373447        -1.066341
 C         2.039356         1.232645        -1.212454
 C         2.738426         0.018743        -0.639850
 H        -0.155691        -0.877241         0.671792
 H        -0.869964         0.191562        -0.655978
 H         0.468835        -0.996352        -1.035539
 H         1.601123         1.675587         1.865216
 H         1.624376        -0.012413         2.175370
 H         4.476416         0.826469         2.139070
 H         3.096939         2.865354         0.812685
 H         4.660706         2.321300        -0.094565
 H         1.615622         1.343018        -2.138901
 H         2.955526        -0.991786        -1.060401
