19
Iteration:  4622charge 0 multiplicity 1
 C         0.209591        -0.570607        -0.539868
 C         1.355243         0.375786        -0.402665
 C         1.761641         0.674289         1.154816
 C         3.258298         0.716046         0.706659
 O         4.395460         0.225975         1.420876
 C         3.443999         2.271916         0.423341
 O         2.556920         2.613245        -0.682146
 C         2.132603         1.310845        -1.178318
 C         2.867379         0.100425        -0.650063
 H         0.505364        -1.480614        -0.143520
 H        -0.758154        -0.396296         0.036450
 H         0.069069        -0.835737        -1.596517
 H         1.135618         1.484769         1.384824
 H         1.516736        -0.194907         1.809930
 H         4.197049        -0.669529         1.624825
 H         3.167621         2.786898         1.335535
 H         4.491080         2.430108         0.213171
 H         2.057642         1.408442        -2.233483
 H         3.418133        -0.412127        -1.483201
