19
Iteration:  2883charge 0 multiplicity 1
 C         0.126223        -0.536755        -0.651681
 C         1.307195         0.315906        -0.183835
 C         1.756167         0.597279         1.284068
 C         3.236436         0.773136         0.704163
 O         4.485297         0.322864         1.361262
 C         3.593644         2.224084         0.367836
 O         2.646273         2.570107        -0.879381
 C         1.998830         1.331890        -1.102533
 C         2.790797         0.139897        -0.596662
 H         0.215967        -1.530760         0.002747
 H        -0.856566        -0.216643        -0.409833
 H         0.178642        -0.867821        -1.702911
 H         1.311463         1.403686         1.914492
 H         1.701381        -0.389678         1.874731
 H         4.177627        -0.440185         1.827636
 H         3.387322         2.890927         1.279802
 H         4.636576         2.225222        -0.091855
 H         1.517922         1.104118        -2.096187
 H         3.300589        -0.514707        -1.237194
