19
Iteration:   969charge 0 multiplicity 1
 C         0.090917        -0.270812        -0.494961
 C         1.412157         0.234413        -0.119317
 C         1.880901         0.785908         1.240426
 C         3.288632         0.766255         0.698070
 O         4.390633         0.307259         1.397217
 C         3.591400         2.078079         0.096257
 O         2.469693         2.469638        -0.703463
 C         2.046774         1.159168        -1.221783
 C         2.829786         0.060826        -0.596887
 H        -0.226834        -1.255833        -0.145032
 H        -0.719227         0.539027        -0.451005
 H         0.078225        -0.657701        -1.476118
 H         1.482746         1.774361         1.262114
 H         1.775735         0.077435         2.038878
 H         4.190168         0.147865         2.372445
 H         3.663902         2.982462         0.693309
 H         4.521529         2.026546        -0.460976
 H         1.719189         1.058876        -2.216956
 H         3.443560        -0.809843        -1.002174
