19
Iteration:  4041charge 0 multiplicity 1
 C         0.229120        -0.546355        -0.721496
 C         1.301340         0.393332        -0.168238
 C         1.882301         0.532263         1.303100
 C         3.219081         0.801992         0.803946
 O         4.432033         0.267174         1.431686
 C         3.422280         2.236218         0.300666
 O         2.690611         2.553877        -0.813685
 C         2.037613         1.331665        -1.174212
 C         2.737684         0.193185        -0.633389
 H         0.236604        -1.533847        -0.324471
 H        -0.876297        -0.214880        -0.554345
 H         0.486687        -0.744243        -1.743512
 H         1.435399         1.279257         1.954043
 H         1.769118        -0.513372         1.772507
 H         4.227544        -0.643966         1.537264
 H         2.872438         2.822890         1.057873
 H         4.414056         2.633519         0.119265
 H         1.702850         1.225459        -2.208882
 H         3.204378        -0.659274        -1.086550
