19
Iteration:  3498charge 0 multiplicity 1
 C         0.233600        -0.559852        -0.640296
 C         1.404232         0.296997        -0.234329
 C         1.821654         0.575998         1.208975
 C         3.260780         0.790405         0.657499
 O         4.336851         0.156520         1.294741
 C         3.402446         2.304633         0.428375
 O         2.551724         2.606174        -0.690754
 C         2.047697         1.316698        -1.171785
 C         2.877144         0.139607        -0.635071
 H         0.248287        -1.418181         0.156466
 H        -0.726453        -0.082848        -0.631549
 H         0.302951        -0.974576        -1.658569
 H         1.438565         1.391362         1.836444
 H         1.900805        -0.316059         1.855740
 H         4.655424         0.501355         2.156554
 H         3.077487         3.101276         1.148300
 H         4.445227         2.491426         0.383092
 H         1.696514         1.354738        -2.194341
 H         3.550128        -0.543407        -1.150518
