19
Iteration:  3980
 C         0.102200        -0.465091        -0.606863
 C         1.463985         0.234476        -0.380036
 C         1.793826         0.699962         1.039870
 C         3.333680         0.747894         0.681873
 O         4.376200         0.304948         1.593900
 C         3.603419         2.241376         0.259582
 O         2.333274         2.524948        -0.498823
 C         2.082871         1.251380        -1.188798
 C         2.966111         0.065108        -0.778898
 H         0.156004        -1.358606         0.111913
 H        -0.640125         0.190957        -0.235831
 H        -0.210780        -0.802878        -1.644716
 H         1.382628         1.714934         1.331745
 H         1.503390        -0.025497         1.776281
 H         4.167575        -0.250379         2.322963
 H         3.473167         2.682106         1.305143
 H         4.583420         2.439287        -0.221837
 H         1.778833         1.375499        -2.272408
 H         3.680340        -0.461960        -1.376482
