19
Iteration:  2288charge 0 multiplicity 1
 C         0.120199        -0.494584        -0.570522
 C         1.356026         0.232789        -0.161681
 C         1.879742         0.657861         1.190426
 C         3.335895         0.812109         0.693665
 O         4.440734         0.227684         1.403878
 C         3.542282         2.248409         0.270918
 O         2.438952         2.559183        -0.698310
 C         2.027167         1.280070        -1.189318
 C         2.859467         0.130916        -0.655570
 H         0.075616        -1.498520        -0.171017
 H        -0.718346         0.098348        -0.236829
 H         0.193080        -0.526595        -1.747785
 H         1.460382         1.586085         1.621407
 H         1.664454        -0.217638         1.869184
 H         4.074417        -0.440909         2.051730
 H         3.537971         3.021893         1.108332
 H         4.586835         2.387858        -0.220438
 H         1.576033         1.131045        -2.199962
 H         3.407051        -0.456914        -1.363015
