19
Iteration:  4216
 C         0.224549        -0.657679        -0.556960
 C         1.382545         0.234435        -0.205913
 C         1.815128         0.629615         1.161706
 C         3.361756         0.870530         0.675993
 O         4.304445         0.015734         1.493375
 C         3.387397         2.422736         0.420148
 O         2.655047         2.593477        -0.778490
 C         2.038174         1.362693        -1.185145
 C         2.833865         0.282919        -0.748659
 H         0.392558        -1.522039         0.036646
 H        -0.859285        -0.206675        -0.407130
 H         0.172676        -0.862009        -1.615962
 H         1.243656         1.349208         1.716919
 H         1.833061        -0.289773         1.896663
 H         4.208997        -0.839057         1.096587
 H         2.951104         3.067073         1.178932
 H         4.431013         2.764499         0.320459
 H         1.625634         1.520744        -2.181152
 H         3.513138        -0.386186        -1.278700
