19
Iteration:  1504
 C         0.112113        -0.532203        -0.657585
 C         1.431282         0.316534        -0.244914
 C         1.834767         0.772753         1.243797
 C         3.307765         0.840203         0.707359
 O         4.343945         0.153023         1.420804
 C         3.462141         2.267138         0.286488
 O         2.512074         2.503767        -0.662633
 C         2.100090         1.186466        -1.189096
 C         2.856774         0.124095        -0.563281
 H        -0.199870        -1.418899        -0.008644
 H        -0.756822         0.207952        -0.395383
 H         0.211370        -0.854493        -1.679997
 H         1.399871         1.705230         1.506270
 H         1.706281        -0.005248         1.944643
 H         4.996402         0.117153         0.647751
 H         3.317799         3.088718         1.016805
 H         4.482782         2.474824        -0.045099
 H         1.760162         1.274384        -2.196090
 H         3.504002        -0.720186        -0.971452
