19
Iteration:  1513
 C         0.118300        -0.460027        -0.647092
 C         1.374694         0.217708        -0.236488
 C         1.835568         0.764661         1.150208
 C         3.352958         0.751680         0.742036
 O         4.366906         0.181582         1.491621
 C         3.519471         2.243545         0.246535
 O         2.395527         2.547061        -0.645358
 C         2.107740         1.249347        -1.197758
 C         2.896761         0.108845        -0.571441
 H        -0.055566        -1.377305        -0.008510
 H        -0.751065         0.246440        -0.505071
 H         0.062057        -0.776767        -1.713004
 H         1.531632         1.794910         1.426076
 H         1.718167         0.106950         1.993588
 H         5.245263         0.201042         0.998159
 H         3.411274         2.995941         1.034021
 H         4.468733         2.319682        -0.274790
 H         1.732790         1.177505        -2.187236
 H         3.345942        -0.777143        -1.189628
