19
Iteration:  2979charge 0 multiplicity 1
 C         0.106051        -0.460855        -0.536270
 C         1.347438         0.213306        -0.292123
 C         1.856124         0.572926         1.127076
 C         3.327004         0.763641         0.634796
 O         4.273403         0.452421         1.523725
 C         3.670861         2.179261         0.169673
 O         2.477099         2.498129        -0.538274
 C         2.133646         1.315133        -1.146126
 C         2.832842         0.070970        -0.770292
 H         0.072799        -1.344294         0.072287
 H        -0.792857        -0.034618        -0.114203
 H        -0.010581        -0.645537        -1.636417
 H         1.416133         1.451296         1.667582
 H         1.858694        -0.120203         1.927430
 H         4.150775        -0.356062         2.010186
 H         3.797988         2.774989         1.024664
 H         4.527157         2.139175        -0.496109
 H         1.604130         1.549501        -2.055580
 H         3.458433        -0.387421        -1.469572
