19
Iteration:   475charge 0 multiplicity 1
 C        -0.010303        -0.415317        -0.243861
 C         1.198494         0.445594        -0.121733
 C         1.852564         0.805847         1.272296
 C         3.295700         0.835619         0.668170
 O         4.337134         0.244818         1.370907
 C         3.686456         2.109891         0.059572
 O         2.836783         2.396268        -1.035478
 C         2.055013         1.188869        -1.207353
 C         2.646439         0.059375        -0.501722
 H         0.048848        -1.428064         0.266237
 H        -0.870953         0.019482         0.441889
 H        -0.287610        -0.786927        -1.259249
 H         1.489676         1.737509         1.724021
 H         1.932759        -0.097829         1.887323
 H         4.648671         0.837998         2.109496
 H         3.501268         2.963758         0.740176
 H         4.686469         1.914327        -0.234891
 H         1.714837         1.151379        -2.330123
 H         3.046786        -0.847033        -0.898176
