19
Iteration:   903
 C         0.212364        -0.448971        -0.292804
 C         1.328601         0.449625        -0.122813
 C         1.782408         0.712247         1.288567
 C         3.212215         0.798360         0.650119
 O         4.202911         0.197574         1.423506
 C         3.617597         2.148254         0.122926
 O         2.746605         2.455439        -0.913671
 C         2.016144         1.266496        -1.230469
 C         2.790972         0.087544        -0.686200
 H         0.399394        -1.371307         0.331829
 H        -0.832682        -0.000454        -0.016715
 H         0.223613        -0.885569        -1.276911
 H         1.367868         1.686643         1.649510
 H         1.901466        -0.152540         1.975293
 H         4.978287         0.779072         1.617669
 H         3.449704         2.741317         1.051810
 H         4.686367         2.234527        -0.013313
 H         1.508378         1.304032        -2.179952
 H         2.978919        -0.865939        -1.124872
