19
Iteration:  1837charge 0 multiplicity 1
 C         0.067540        -0.383537        -0.604892
 C         1.452288         0.264921        -0.251068
 C         1.920405         0.760123         1.187161
 C         3.338700         0.787741         0.646082
 O         4.341570         0.300190         1.434053
 C         3.528668         2.241433         0.171923
 O         2.345978         2.462433        -0.515867
 C         2.081755         1.136849        -1.200075
 C         2.961944         0.058161        -0.616451
 H        -0.128389        -1.324951        -0.128340
 H        -0.625644         0.360395        -0.281739
 H         0.206083        -0.643489        -1.654811
 H         1.679240         1.826882         1.379353
 H         1.784675         0.050592         2.050270
 H         4.083282        -0.572538         1.777087
 H         3.520045         2.815987         1.066154
 H         4.354910         2.317266        -0.564852
 H         1.638175         1.263233        -2.184114
 H         3.648053        -0.601498        -1.200101
