19
Iteration:  1780
 C         0.130448        -0.450058        -0.469671
 C         1.323564         0.374977        -0.188149
 C         1.876569         0.490814         1.298678
 C         3.264121         0.758962         0.663454
 O         4.333758         0.415338         1.437910
 C         3.454310         2.272198         0.335928
 O         2.724848         2.462398        -0.853300
 C         2.072125         1.336183        -1.230279
 C         2.790839         0.087267        -0.731825
 H         0.276707        -1.410335        -0.044699
 H        -0.935937        -0.223839        -0.296212
 H         0.095649        -0.608334        -1.531928
 H         1.510612         1.200258         2.129636
 H         1.853412        -0.463824         1.884408
 H         4.337958        -0.562743         1.378452
 H         3.176084         2.744955         1.330832
 H         4.511980         2.565814         0.162665
 H         1.633875         1.220897        -2.215601
 H         3.045175        -0.853664        -1.360157
