19
Iteration:  4002
 C         0.158953        -0.433776        -0.660272
 C         1.497713         0.161699        -0.228207
 C         1.834205         0.585803         1.166479
 C         3.301666         0.835847         0.691009
 O         4.299072         0.320345         1.457578
 C         3.487759         2.226431         0.239625
 O         2.445732         2.504169        -0.567787
 C         2.095908         1.263199        -1.173985
 C         2.926923         0.169445        -0.687812
 H        -0.155866        -1.440927        -0.183125
 H        -0.560976         0.303711        -0.448377
 H         0.181406        -0.597537        -1.784479
 H         1.328906         1.542523         1.511042
 H         1.645623        -0.174657         1.905264
 H         3.948581        -0.261678         2.195011
 H         3.679589         2.826235         1.171497
 H         4.467876         2.037032        -0.335013
 H         1.796731         1.506527        -2.223741
 H         3.493764        -0.552069        -1.267141
