19
Iteration:  1629
 C         0.227353        -0.524843        -0.620940
 C         1.342618         0.303020        -0.164384
 C         1.752745         0.676046         1.260080
 C         3.262108         0.793356         0.753639
 O         4.361188         0.073698         1.396053
 C         3.486903         2.430089         0.330002
 O         2.573851         2.557559        -0.839891
 C         2.032712         1.217841        -1.162901
 C         2.874716         0.187672        -0.546965
 H         0.226624        -1.517772        -0.158216
 H        -0.718144         0.001146        -0.337773
 H         0.193837        -0.701450        -1.753611
 H         1.407427         1.566697         1.660269
 H         1.830062        -0.269569         1.783385
 H         4.907246        -0.291825         0.648865
 H         3.158342         3.116213         1.123336
 H         4.543121         2.481838         0.052579
 H         1.726125         1.262652        -2.174978
 H         3.391780        -0.662450        -0.985320
