19
Iteration:  2083
 C         0.144352        -0.564372        -0.548582
 C         1.385964         0.261344        -0.177589
 C         1.867102         0.719450         1.213905
 C         3.279134         0.734695         0.538054
 O         4.312044         0.309702         1.419164
 C         3.597519         2.248570         0.293660
 O         2.491281         2.507334        -0.591073
 C         2.039958         1.304391        -1.205478
 C         2.845823         0.147531        -0.697160
 H         0.297267        -1.447119         0.124988
 H        -0.730431        -0.032397        -0.132709
 H        -0.121761        -0.770878        -1.610966
 H         1.388678         1.593068         1.697800
 H         1.958323        -0.159647         1.911118
 H         4.382377        -0.612653         1.187351
 H         3.619777         2.901415         1.200909
 H         4.645965         2.446144        -0.297409
 H         1.647028         1.374205        -2.215865
 H         3.516739        -0.496186        -1.178695
