19
Iteration:  3462
 C         0.172044        -0.556873        -0.573276
 C         1.429958         0.266666        -0.309062
 C         1.829880         0.568021         1.147775
 C         3.332621         0.826597         0.741970
 O         4.317556         0.032591         1.342254
 C         3.427704         2.355382         0.403041
 O         2.475523         2.636705        -0.685024
 C         2.053166         1.294991        -1.200880
 C         2.984830         0.208280        -0.652645
 H         0.114461        -1.380313         0.156550
 H        -0.729350         0.073257        -0.210964
 H         0.045647        -1.120809        -1.476231
 H         1.313962         1.394793         1.620539
 H         1.807420        -0.334559         1.715917
 H         4.490616         0.586077         2.133688
 H         3.004862         2.977253         1.265008
 H         4.314579         2.636593        -0.031798
 H         1.758737         1.307176        -2.252975
 H         3.807386        -0.326504        -1.190692
