19
Iteration:   976
 C         0.067987        -0.287282        -0.519297
 C         1.409920         0.254507        -0.110649
 C         1.857272         0.742292         1.247057
 C         3.335615         0.738429         0.676839
 O         4.407192         0.284972         1.421128
 C         3.544306         2.122244         0.139589
 O         2.503304         2.495046        -0.789891
 C         2.046182         1.189054        -1.187169
 C         2.821124         0.039423        -0.628853
 H        -0.170462        -1.128008         0.171514
 H        -0.792043         0.374506        -0.343395
 H         0.100529        -0.625398        -1.604907
 H         1.414483         1.741726         1.529887
 H         1.704658         0.030596         2.065432
 H         4.285567         0.564342         2.387502
 H         3.771321         2.878083         0.948707
 H         4.471890         1.950247        -0.506173
 H         1.715870         1.015919        -2.231409
 H         3.323863        -0.787596        -0.997551
