19
Iteration:  3503
 C         0.189037        -0.590611        -0.662974
 C         1.330389         0.315130        -0.249188
 C         1.821413         0.599217         1.210860
 C         3.272176         0.806742         0.660780
 O         4.415386         0.151072         1.336319
 C         3.417364         2.295277         0.405279
 O         2.532007         2.602638        -0.707811
 C         2.059624         1.315210        -1.139764
 C         2.881907         0.166445        -0.641064
 H         0.242591        -1.453218        -0.056233
 H        -0.784858        -0.025234        -0.571287
 H         0.499538        -0.980393        -1.679738
 H         1.300540         1.363434         1.851523
 H         1.915194        -0.345000         1.821762
 H         4.584104         0.516901         2.207082
 H         3.102037         2.859581         1.295315
 H         4.592668         2.480027         0.302809
 H         1.661432         1.352136        -2.170734
 H         3.443419        -0.632023        -1.137353
