19
Iteration:   379
 C         0.004282        -0.229469        -0.348754
 C         1.329335         0.372470        -0.083246
 C         1.896718         0.873434         1.306156
 C         3.283945         0.823895         0.677805
 O         4.327993         0.300735         1.472027
 C         3.727106         1.968383        -0.094929
 O         2.597134         2.413291        -0.786326
 C         1.995505         1.100127        -1.240730
 C         2.759032        -0.049661        -0.569526
 H        -0.332581        -0.925718         0.396986
 H        -0.724440         0.518913        -0.260102
 H        -0.011162        -0.756236        -1.269920
 H         1.521183         1.894989         1.507679
 H         1.858935         0.116222         2.123693
 H         5.136672         0.875853         1.370545
 H         3.977858         2.855040         0.555153
 H         4.500825         1.670590        -0.846522
 H         1.591436         1.063117        -2.352025
 H         3.105239        -0.971914        -1.019074
