19
Iteration:  2261
 C         0.184554        -0.450737        -0.775361
 C         1.333299         0.289347        -0.154223
 C         1.891748         0.718339         1.273770
 C         3.330156         0.844334         0.699023
 O         4.422032         0.367239         1.322517
 C         3.634713         2.193464         0.123791
 O         2.373904         2.454773        -0.476884
 C         2.053338         1.257497        -1.170823
 C         2.763933         0.012821        -0.548695
 H         0.321888        -1.516541        -0.459019
 H        -0.728987         0.061142        -0.407493
 H         0.372936        -0.523878        -1.751625
 H         1.422360         1.538710         1.879906
 H         1.690139        -0.100422         1.941965
 H         4.129824        -0.378606         1.913904
 H         3.865229         2.909297         0.884307
 H         4.467483         2.166118        -0.588365
 H         1.626824         1.214292        -2.127130
 H         3.173587        -0.813522        -1.243860
