19
Iteration:  1784
 C         0.098454        -0.442654        -0.467941
 C         1.336024         0.374937        -0.172614
 C         1.880943         0.501594         1.295183
 C         3.252511         0.767359         0.653609
 O         4.305877         0.421766         1.440903
 C         3.474615         2.257614         0.342183
 O         2.687854         2.490063        -0.846050
 C         2.118201         1.300123        -1.200145
 C         2.800087         0.084223        -0.768785
 H         0.197006        -1.489590         0.015929
 H        -0.947419        -0.128629        -0.137644
 H         0.116345        -0.671050        -1.647301
 H         1.493247         1.133391         2.076574
 H         1.909672        -0.501882         1.813042
 H         4.460198        -0.528073         1.366125
 H         3.168327         2.776501         1.243963
 H         4.576122         2.368103         0.074146
 H         1.728947         1.225100        -2.233404
 H         3.250643        -0.792363        -1.336568
