19
Iteration:   108
 C        -0.100025        -0.170817        -0.278564
 C         1.271138         0.379824        -0.018132
 C         1.820070         0.978250         1.209278
 C         3.339858         0.759118         0.702037
 O         4.485776         0.313246         1.394896
 C         3.750302         1.949697        -0.134901
 O         2.583736         2.350266        -0.855290
 C         2.055357         1.077487        -1.162386
 C         2.762742        -0.086878        -0.523363
 H        -0.171312        -1.261093         0.023328
 H        -0.864376         0.535475         0.068191
 H        -0.323701        -0.212138        -1.381698
 H         1.535242         2.109191         1.218029
 H         1.523221         0.528856         2.187216
 H         4.337119         0.492374         2.319761
 H         4.110422         2.847663         0.354961
 H         4.585293         1.693586        -0.875291
 H         1.552529         1.009026        -2.082086
 H         3.197299        -0.927959        -1.060929
