19
Iteration:  4743
 C         0.136267        -0.500345        -0.616386
 C         1.425429         0.263989        -0.294709
 C         1.841107         0.627686         1.135674
 C         3.340763         0.755226         0.749817
 O         4.314854         0.220698         1.550413
 C         3.520317         2.307721         0.304567
 O         2.457551         2.561858        -0.590594
 C         2.065230         1.234797        -1.242163
 C         2.977603         0.217075        -0.738153
 H        -0.023982        -1.485553        -0.253581
 H        -0.773586         0.074927        -0.130138
 H        -0.043367        -0.583937        -1.752514
 H         1.420321         1.506686         1.607579
 H         1.597768        -0.380155         1.609059
 H         4.209342        -0.751568         1.667150
 H         3.428201         3.056381         1.081283
 H         4.534287         2.484569        -0.106040
 H         1.663383         1.364182        -2.303005
 H         3.332355        -0.592172        -1.416207
