19
Iteration:  4889charge 0 multiplicity 1
 C         0.172568        -0.404407        -0.624530
 C         1.443556         0.258665        -0.298347
 C         1.755881         0.515049         1.161864
 C         3.249483         0.788263         0.665922
 O         4.319709         0.407904         1.427113
 C         3.491320         2.188817         0.405721
 O         2.536029         2.480217        -0.614144
 C         2.128897         1.265445        -1.177435
 C         2.875806         0.174651        -0.666666
 H         0.107829        -1.448438        -0.135875
 H        -0.663729         0.297452        -0.351676
 H         0.014684        -0.612228        -1.715804
 H         1.279548         1.403562         1.699517
 H         1.792581        -0.458226         1.659865
 H         4.355295        -0.563992         1.585646
 H         3.457689         3.099211         1.065783
 H         4.490350         2.188276        -0.080764
 H         2.026485         1.206825        -2.261257
 H         3.415801        -0.668814        -1.131342
