19
Iteration:  3557charge 0 multiplicity 1
 C         0.190793        -0.482754        -0.671789
 C         1.436889         0.175343        -0.237906
 C         1.810198         0.556345         1.245240
 C         3.311965         0.785429         0.633838
 O         4.283862         0.281389         1.447432
 C         3.609821         2.302668         0.178909
 O         2.387975         2.549873        -0.527249
 C         2.053612         1.279040        -1.131639
 C         2.957779         0.193894        -0.700255
 H         0.128099        -1.544986        -0.542015
 H        -0.595754         0.064767        -0.110318
 H         0.271766        -0.260718        -1.788359
 H         1.318919         1.492169         1.690620
 H         1.781213        -0.374538         1.940083
 H         3.898416        -0.137758         2.192869
 H         3.650844         3.015144         0.925747
 H         4.491699         2.056748        -0.419143
 H         1.672316         1.278163        -2.160685
 H         3.556878        -0.522630        -1.307564
