19
Iteration:  1325
 C         0.127528        -0.662585        -0.419665
 C         1.283531         0.362826        -0.218769
 C         1.807404         0.569472         1.258000
 C         3.264107         0.875171         0.749246
 O         4.312141         0.221794         1.453011
 C         3.526925         2.255682         0.317157
 O         2.727264         2.622357        -0.858995
 C         2.138882         1.340751        -1.237926
 C         2.723869         0.136035        -0.688247
 H        -0.051215        -1.423180         0.389569
 H        -0.843799        -0.188167        -0.413089
 H         0.389121        -1.145417        -1.445903
 H         1.233972         1.288474         1.759154
 H         1.746895        -0.421136         1.549419
 H         4.885811        -0.243562         0.729979
 H         3.221154         2.952005         1.100397
 H         4.625658         2.450154         0.108104
 H         1.871935         1.468842        -2.306739
 H         3.204213        -0.679235        -1.155855
