19
Iteration:  3459charge 0 multiplicity 1
 C         0.153855        -0.570880        -0.579485
 C         1.409566         0.270192        -0.335182
 C         1.881051         0.572569         1.144442
 C         3.318627         0.821033         0.743576
 O         4.329925         0.042945         1.359138
 C         3.426164         2.363836         0.399919
 O         2.467920         2.628576        -0.680481
 C         2.054607         1.291017        -1.185769
 C         2.966805         0.205353        -0.640421
 H         0.169447        -1.359263         0.106106
 H        -0.678088         0.085667        -0.227737
 H         0.042073        -1.109923        -1.556297
 H         1.379369         1.430335         1.613433
 H         1.676152        -0.351323         1.717076
 H         4.461970         0.564072         2.141568
 H         3.160353         2.916607         1.288375
 H         4.357925         2.704570        -0.093255
 H         1.795069         1.311230        -2.272553
 H         3.721085        -0.295810        -1.210476
