19
Iteration:  3371charge 0 multiplicity 1
 C         0.255112        -0.550055        -0.608874
 C         1.402129         0.320213        -0.249351
 C         1.861205         0.617816         1.192776
 C         3.314722         0.833639         0.685955
 O         4.285945         0.226798         1.442017
 C         3.469568         2.288922         0.348373
 O         2.489846         2.529579        -0.658640
 C         2.061874         1.303725        -1.130194
 C         2.859269         0.176111        -0.673925
 H         0.325730        -1.571123        -0.289154
 H        -0.730553        -0.172378        -0.223034
 H         0.214445        -0.668017        -1.760369
 H         1.241590         1.392352         1.599918
 H         1.741265        -0.341998         1.706297
 H         4.652424        -0.494500         0.961647
 H         3.340351         2.839926         1.295408
 H         4.390820         2.403906        -0.175486
 H         1.845470         1.339437        -2.188041
 H         3.256538        -0.622304        -1.293884
