19
Iteration:  4418charge 0 multiplicity 1
 C         0.165526        -0.550874        -0.848272
 C         1.395656         0.253636        -0.216685
 C         1.813372         0.574771         1.227597
 C         3.286451         0.828774         0.699643
 O         4.361907         0.301390         1.450380
 C         3.599398         2.269956         0.185069
 O         2.417957         2.601025        -0.497482
 C         2.092925         1.340651        -1.161714
 C         2.864620         0.084807        -0.566986
 H         0.312181        -1.721569        -0.572002
 H        -0.730243        -0.227013        -0.329190
 H        -0.082749        -0.487315        -1.985227
 H         1.207652         1.492466         1.673726
 H         1.828737        -0.225265         1.992855
 H         4.052428        -0.495695         1.886038
 H         3.789884         2.917711         1.060007
 H         4.523625         2.222502        -0.445157
 H         2.061437         1.227551        -2.229637
 H         3.321146        -0.668204        -1.176352
