19
Iteration:  1396
 C         0.055862        -0.313901        -0.621691
 C         1.460510         0.211631        -0.239447
 C         1.777988         0.724808         1.131456
 C         3.312692         0.800625         0.704895
 O         4.404664         0.110109         1.477607
 C         3.519978         2.290587         0.125996
 O         2.343467         2.459268        -0.586098
 C         2.062314         1.186260        -1.140637
 C         3.040311         0.099342        -0.563298
 H        -0.085851        -1.375483        -0.365490
 H        -0.840429         0.258286        -0.169321
 H         0.011031        -0.281640        -1.683494
 H         1.337877         1.722888         1.474237
 H         1.702117        -0.165724         1.850936
 H         4.935353         0.765972         2.035834
 H         3.570268         3.187433         0.815199
 H         4.456123         2.291512        -0.556737
 H         1.884261         1.092314        -2.193764
 H         3.677571        -0.528933        -1.294710
