19
Iteration:   630charge 0 multiplicity 1
 C        -0.030126        -0.346950        -0.387266
 C         1.365858         0.401309        -0.081751
 C         1.822986         0.877053         1.333229
 C         3.347322         0.773826         0.709045
 O         4.348763         0.188850         1.440807
 C         3.594113         2.243022         0.128134
 O         2.612322         2.418769        -0.977643
 C         2.129163         1.080755        -1.252562
 C         2.808524        -0.006591        -0.527667
 H        -0.302727        -1.139981         0.358332
 H        -0.873443         0.401636        -0.181939
 H        -0.223851        -0.657580        -1.400689
 H         1.491214         1.795898         1.754850
 H         1.415932         0.148610         2.035008
 H         4.965024        -0.053892         0.703721
 H         3.417957         3.104497         0.834847
 H         4.633322         2.412004        -0.420238
 H         1.643909         0.928019        -2.192572
 H         3.386369        -0.854556        -1.022084
