19
Iteration:  4071charge 0 multiplicity 1
 C         0.221135        -0.525694        -0.504661
 C         1.375060         0.300026        -0.264229
 C         1.736068         0.566902         1.166393
 C         3.202338         0.768306         0.719340
 O         4.359882         0.362229         1.295059
 C         3.386146         2.294772         0.472010
 O         2.784074         2.534674        -0.735835
 C         2.114323         1.287912        -1.140521
 C         2.806371         0.101557        -0.706038
 H         0.371935        -1.538315        -0.062795
 H        -0.746108        -0.065401        -0.176765
 H         0.150264        -0.726231        -1.605470
 H         1.190913         1.422497         1.598398
 H         1.474239        -0.331742         1.857883
 H         4.347980        -0.635211         1.120461
 H         2.779918         2.863093         1.238042
 H         4.410510         2.662401         0.478972
 H         1.756618         1.325938        -2.139438
 H         3.254977        -0.759749        -1.233445
