19
Iteration:   902
 C         0.220043        -0.449643        -0.282766
 C         1.321185         0.454313        -0.120334
 C         1.777057         0.707596         1.284113
 C         3.209505         0.799604         0.651996
 O         4.206246         0.196118         1.418745
 C         3.619343         2.155283         0.121370
 O         2.754302         2.456023        -0.917829
 C         2.019786         1.269655        -1.224577
 C         2.784008         0.079513        -0.684997
 H         0.389894        -1.383726         0.292666
 H        -0.826777        -0.002318        -0.023286
 H         0.221984        -0.901298        -1.256617
 H         1.394958         1.665890         1.629169
 H         1.888798        -0.162281         1.916186
 H         4.923164         0.796313         1.649990
 H         3.449433         2.708085         1.077347
 H         4.676335         2.279293        -0.015259
 H         1.497618         1.301617        -2.200138
 H         2.982475        -0.850923        -1.098573
