19
Iteration:  2441charge 0 multiplicity 1
 C         0.172196        -0.630594        -0.404239
 C         1.357516         0.260734        -0.240170
 C         1.838837         0.649163         1.072828
 C         3.271109         0.858155         0.566708
 O         4.300085         0.264130         1.430870
 C         3.557028         2.252677         0.310124
 O         2.601517         2.603672        -0.612536
 C         2.070542         1.314037        -1.156969
 C         2.836202         0.156305        -0.787041
 H         0.235090        -1.463709         0.361821
 H        -0.769665        -0.169573        -0.216918
 H         0.104259        -1.229065        -1.403055
 H         1.261631         1.384329         1.650670
 H         1.983466        -0.237065         1.697248
 H         4.165328        -0.652978         1.684378
 H         3.450138         2.829632         1.274799
 H         4.509595         2.431212        -0.171203
 H         1.566968         1.710279        -1.981432
 H         3.209514        -0.718599        -1.392761
