19
Iteration:  4792charge 0 multiplicity 1
 C         0.162658        -0.687123        -0.704688
 C         1.238354         0.330299        -0.228947
 C         1.696209         0.588054         1.253552
 C         3.238205         0.854212         0.727083
 O         4.469589         0.194045         1.379560
 C         3.556585         2.291269         0.423845
 O         2.668757         2.543324        -0.777727
 C         2.075642         1.360211        -1.157737
 C         2.796389         0.308627        -0.636939
 H         0.481051        -1.691305        -0.158932
 H        -0.859100        -0.559938        -0.512597
 H         0.276823        -0.964327        -1.753398
 H         1.125269         1.463931         1.659804
 H         1.706481        -0.346096         1.732731
 H         4.049242        -0.596537         1.805253
 H         3.508063         3.022811         1.263158
 H         4.613698         2.382732         0.194068
 H         1.725973         1.633692        -2.124897
 H         3.375076        -0.595412        -0.917731
