19
Iteration:  4232charge 0 multiplicity 1
 C         0.132846        -0.664764        -0.555056
 C         1.374861         0.361594        -0.354820
 C         1.877462         0.553008         1.180699
 C         3.250161         0.804488         0.706573
 O         4.312512         0.161602         1.486992
 C         3.492846         2.382211         0.422405
 O         2.577021         2.643575        -0.713933
 C         2.109973         1.373900        -1.198283
 C         2.894811         0.125447        -0.700629
 H         0.332106        -1.742182        -0.184625
 H        -0.704020        -0.279249        -0.059742
 H        -0.062188        -0.873307        -1.658176
 H         1.389899         1.464274         1.732581
 H         1.805211        -0.356377         1.728895
 H         4.201858        -0.786164         1.232586
 H         3.113143         2.892015         1.337857
 H         4.458686         2.794192         0.086733
 H         1.690906         1.447437        -2.223039
 H         3.330406        -0.580666        -1.434919
