19
Iteration:  3729
 C         0.198930        -0.510455        -0.537886
 C         1.451626         0.263587        -0.280477
 C         1.820464         0.578866         1.151828
 C         3.244024         0.764296         0.631062
 O         4.249385         0.292690         1.556650
 C         3.500059         2.300199         0.349301
 O         2.551457         2.566533        -0.656104
 C         2.054470         1.273488        -1.251772
 C         2.918707         0.154925        -0.719889
 H         0.378706        -1.462745         0.049899
 H        -0.647618        -0.043911        -0.174328
 H        -0.008197        -0.665832        -1.608019
 H         1.264883         1.352786         1.590950
 H         1.677678        -0.357650         1.685744
 H         4.483565        -0.681739         1.470675
 H         3.473399         3.110515         1.191428
 H         4.582065         2.358684        -0.043376
 H         1.746261         1.387248        -2.272227
 H         3.353908        -0.552853        -1.464897
