19
Iteration:   450
 C         0.074854        -0.284866        -0.179316
 C         1.297896         0.432734        -0.060567
 C         1.755887         0.813627         1.362422
 C         3.238021         0.726458         0.628587
 O         4.412704         0.265040         1.400869
 C         3.607036         2.197297         0.067051
 O         2.825392         2.401512        -1.086832
 C         2.028517         1.157050        -1.235984
 C         2.705690         0.000413        -0.654799
 H         0.169716        -1.158818         0.486481
 H        -0.809356         0.139868         0.303692
 H        -0.014875        -0.851881        -1.123345
 H         1.309748         1.784716         1.608644
 H         1.534472        -0.043840         1.998449
 H         4.104783        -0.227486         2.222562
 H         3.403763         2.976210         0.785777
 H         4.602391         2.026432        -0.228691
 H         1.642037         1.210720        -2.234190
 H         3.145527        -0.948506        -1.057255
