19
Iteration:  3652charge 0 multiplicity 1
 C         0.190203        -0.561927        -0.797462
 C         1.342480         0.327257        -0.153526
 C         1.901984         0.583847         1.308367
 C         3.213764         0.867540         0.688601
 O         4.419269         0.251604         1.437463
 C         3.473848         2.308453         0.321445
 O         2.555799         2.550062        -0.754888
 C         2.037507         1.304538        -1.107323
 C         2.823865         0.090944        -0.627159
 H        -0.082141        -1.598546        -0.360662
 H        -0.700664         0.010953        -0.798071
 H         0.502886        -0.649457        -1.869385
 H         1.615148         1.324828         1.983818
 H         1.965977        -0.392229         1.745996
 H         4.069905        -0.529266         1.891476
 H         3.162701         2.863669         1.288624
 H         4.505940         2.522085        -0.083711
 H         1.629851         1.371558        -2.131255
 H         3.307867        -0.706368        -1.245946
