19
Iteration:  2440
 C         0.172247        -0.624096        -0.414457
 C         1.360168         0.257432        -0.241958
 C         1.842152         0.646778         1.079030
 C         3.269256         0.854317         0.563017
 O         4.299006         0.275980         1.432771
 C         3.563228         2.246815         0.298389
 O         2.594540         2.602101        -0.602873
 C         2.062761         1.317786        -1.151032
 C         2.842361         0.155823        -0.788993
 H         0.244167        -1.494164         0.405816
 H        -0.810193        -0.141070        -0.210280
 H         0.116121        -1.216629        -1.430684
 H         1.244006         1.425172         1.654979
 H         1.966382        -0.259198         1.709157
 H         4.160732        -0.666273         1.689375
 H         3.497599         2.800708         1.289438
 H         4.524606         2.379994        -0.182780
 H         1.563968         1.669198        -2.027625
 H         3.232619        -0.709463        -1.371917
