19
Iteration:  4557
 C         0.161880        -0.497692        -0.829682
 C         1.420842         0.268503        -0.237128
 C         1.758390         0.536559         1.258443
 C         3.273874         0.856534         0.810925
 O         4.423382         0.270951         1.504990
 C         3.653462         2.234392         0.172872
 O         2.418682         2.597535        -0.586034
 C         1.996260         1.308484        -1.177767
 C         2.865212         0.142163        -0.614053
 H         0.223221        -1.473588        -0.495203
 H        -0.877063        -0.113567        -0.516728
 H         0.266208        -0.606380        -1.944790
 H         1.231398         1.307851         1.829048
 H         1.846454        -0.433720         1.812170
 H         4.067491        -0.546568         1.979110
 H         3.901643         3.040529         0.847540
 H         4.510858         2.168478        -0.494171
 H         1.719924         1.281194        -2.219323
 H         3.455595        -0.613188        -1.157836
