19
Iteration:   519
 C         0.048580        -0.222411        -0.359667
 C         1.472458         0.267709        -0.071242
 C         1.906204         0.963154         1.188965
 C         3.326413         0.816142         0.678899
 O         4.263128         0.181473         1.586581
 C         3.658529         2.094011        -0.069446
 O         2.497613         2.394258        -0.854190
 C         1.958913         1.125590        -1.179711
 C         2.834206         0.008913        -0.564384
 H        -0.204077        -1.214683         0.090720
 H        -0.716567         0.495170         0.173350
 H        -0.013579        -0.359734        -1.442155
 H         1.699706         2.013680         1.231410
 H         1.839448         0.474439         2.162173
 H         4.839200        -0.086540         0.819654
 H         3.809472         2.832274         0.698969
 H         4.356207         1.937105        -0.795248
 H         1.651723         0.860680        -2.231982
 H         3.476811        -0.727180        -0.963205
