19
Iteration:  3861
 C         0.143390        -0.427208        -0.571490
 C         1.468980         0.153214        -0.321986
 C         1.789526         0.586280         1.093427
 C         3.262892         0.806991         0.701799
 O         4.332991         0.298089         1.561337
 C         3.537838         2.235050         0.217816
 O         2.441753         2.554594        -0.628181
 C         2.059670         1.259209        -1.131425
 C         3.027111         0.162703        -0.722518
 H        -0.021102        -1.305564         0.122114
 H        -0.495909         0.309063        -0.208085
 H        -0.111003        -0.708494        -1.639650
 H         1.039591         1.325395         1.496139
 H         1.702162        -0.313249         1.742365
 H         3.896250        -0.490534         2.001192
 H         3.454682         2.988229         1.052371
 H         4.493223         2.269789        -0.301269
 H         1.825661         1.510148        -2.189917
 H         3.730324        -0.456568        -1.254920
