19
Iteration:   311charge 0 multiplicity 1
 C         0.072396        -0.260018        -0.134593
 C         1.350883         0.403787        -0.098583
 C         1.829863         0.962211         1.266653
 C         3.294108         0.870772         0.655504
 O         4.259319         0.147595         1.300937
 C         3.630833         2.218120         0.072248
 O         2.763498         2.387376        -1.022233
 C         2.066782         1.023489        -1.256931
 C         2.733790         0.005283        -0.471169
 H         0.224270        -1.140827         0.450520
 H        -0.651295         0.275799         0.446806
 H        -0.210475        -0.672121        -1.082792
 H         1.429389         1.981815         1.473188
 H         1.636384         0.116654         1.936741
 H         4.026097        -0.780386         1.294059
 H         3.380899         3.021450         0.818795
 H         4.723497         2.226039        -0.209932
 H         1.622385         0.772959        -2.203777
 H         3.097907        -0.961301        -0.860576
