19
Iteration:  1484
 C         0.247958        -0.504228        -0.574471
 C         1.320780         0.318103        -0.126527
 C         1.724160         0.618465         1.269338
 C         3.274555         0.801259         0.708714
 O         4.253110         0.191266         1.347609
 C         3.525486         2.328988         0.388235
 O         2.646104         2.544647        -0.876047
 C         2.119356         1.237876        -1.161942
 C         2.811884         0.164634        -0.594857
 H         0.183762        -1.400238         0.078926
 H        -0.816023        -0.162096        -0.443208
 H         0.588688        -0.880020        -1.499980
 H         1.363518         1.456170         1.831205
 H         1.925271        -0.253830         1.903269
 H         4.807709        -0.246538         0.639534
 H         3.134517         3.135413         1.062055
 H         4.608022         2.616908         0.191845
 H         1.671187         1.127555        -2.149959
 H         3.231940        -0.662027        -1.126745
