19
Iteration:   634
 C         0.001722        -0.315298        -0.378294
 C         1.365841         0.359870        -0.103295
 C         1.833550         0.875601         1.306742
 C         3.299840         0.790032         0.701440
 O         4.365224         0.223918         1.461318
 C         3.603610         2.206253         0.127147
 O         2.597800         2.431942        -0.958683
 C         2.125774         1.068140        -1.237248
 C         2.802990        -0.014426        -0.552734
 H        -0.225091        -1.130682         0.375112
 H        -0.700462         0.453892        -0.063421
 H        -0.146669        -0.579024        -1.477844
 H         1.488746         1.878772         1.685321
 H         1.491633         0.150140         2.076752
 H         4.909669        -0.190976         0.779930
 H         3.450274         2.984325         0.882319
 H         4.458093         2.214103        -0.429786
 H         1.593826         1.022028        -2.266558
 H         3.256695        -0.861011        -1.035105
