19
Iteration:  4686
 C         0.188618        -0.423321        -0.782256
 C         1.381008         0.321799        -0.205152
 C         1.864174         0.531581         1.240146
 C         3.374675         0.726504         0.728817
 O         4.426466         0.332829         1.568988
 C         3.446190         2.207154         0.315191
 O         2.499890         2.536500        -0.676893
 C         1.976386         1.340765        -1.201091
 C         2.841508         0.095848        -0.732156
 H        -0.054584        -1.370608        -0.221502
 H        -0.751654         0.294677        -0.742311
 H         0.420312        -0.655765        -1.822424
 H         1.371231         1.322008         1.802316
 H         1.850533        -0.348528         1.990462
 H         4.434914        -0.604610         1.844735
 H         3.092020         2.887953         1.091353
 H         4.457232         2.397570        -0.101460
 H         1.723605         1.486362        -2.234545
 H         3.147643        -0.832129        -1.300791
