19
Iteration:  3326
 C         0.164040        -0.555250        -0.495866
 C         1.322764         0.291072        -0.310931
 C         1.838389         0.542340         1.140071
 C         3.291141         0.828661         0.669742
 O         4.303897         0.120209         1.405191
 C         3.467296         2.350421         0.407952
 O         2.581606         2.580868        -0.675742
 C         2.076094         1.285577        -1.208959
 C         2.869620         0.183595        -0.699596
 H         0.155020        -1.386721         0.269717
 H        -0.763397         0.028908        -0.266675
 H         0.205379        -1.042063        -1.544340
 H         1.271279         1.276216         1.724546
 H         2.023921        -0.487057         1.620188
 H         5.033010         0.643306         1.695213
 H         2.920652         3.004776         1.218591
 H         4.493467         2.716852         0.107451
 H         1.828283         1.311597        -2.247454
 H         3.687079        -0.320623        -1.344986
