19
Iteration:  1669
 C         0.169159        -0.534122        -0.561593
 C         1.401982         0.325592        -0.274458
 C         1.887214         0.571012         1.094657
 C         3.331222         0.766082         0.566585
 O         4.195123         0.370217         1.629744
 C         3.679072         2.176830         0.158187
 O         2.498277         2.589846        -0.499141
 C         2.011833         1.270353        -1.148230
 C         2.803857         0.064304        -0.756726
 H         0.032918        -1.375561         0.144073
 H        -0.757094         0.154417        -0.421793
 H         0.240315        -0.906926        -1.570681
 H         1.487727         1.493077         1.714232
 H         1.708617        -0.373587         1.686353
 H         5.098590         0.167564         1.306820
 H         3.762556         2.807570         1.130909
 H         4.486428         2.388850        -0.563763
 H         1.628159         1.353890        -2.155312
 H         3.177246        -0.662725        -1.353942
