19
Iteration:  3159
 C         0.177320        -0.467144        -0.647136
 C         1.398010         0.322595        -0.199494
 C         1.790128         0.661541         1.266879
 C         3.317844         0.754854         0.656341
 O         4.449549         0.287430         1.349607
 C         3.486966         2.243716         0.299986
 O         2.501688         2.549923        -0.669236
 C         2.043547         1.233441        -1.189750
 C         2.832933         0.124904        -0.599459
 H         0.286824        -1.548042        -0.203338
 H        -0.798686        -0.090464        -0.404992
 H         0.341027        -0.599497        -1.684498
 H         1.299675         1.501426         1.730273
 H         1.881280        -0.216384         1.897575
 H         3.962407        -0.463135         1.760501
 H         3.318486         2.917661         1.184419
 H         4.507646         2.257805        -0.146968
 H         1.589758         1.270094        -2.172192
 H         3.215464        -0.821705        -0.961840
