19
Iteration:  2247charge 0 multiplicity 1
 C         0.231808        -0.497530        -0.712094
 C         1.322885         0.278681        -0.142460
 C         1.793783         0.693078         1.246229
 C         3.303948         0.766471         0.663280
 O         4.518433         0.347913         1.439331
 C         3.641853         2.166696         0.127627
 O         2.394779         2.541981        -0.575214
 C         1.945607         1.258495        -1.063010
 C         2.776988         0.093455        -0.614064
 H        -0.046840        -1.530098        -0.420307
 H        -0.778322        -0.009073        -0.707406
 H         0.325467        -0.382870        -1.833805
 H         1.407447         1.680935         1.540263
 H         1.863590        -0.224867         1.862903
 H         4.454458        -0.565457         1.780157
 H         3.924569         2.980036         0.776606
 H         4.446681         2.085496        -0.573073
 H         1.685727         1.389700        -2.138577
 H         3.280688        -0.684929        -1.229017
