19
Iteration:  1624charge 0 multiplicity 1
 C         0.218547        -0.518127        -0.633167
 C         1.386544         0.345363        -0.165861
 C         1.757427         0.677423         1.265582
 C         3.270472         0.807990         0.762720
 O         4.340948         0.071232         1.341177
 C         3.457899         2.436340         0.365104
 O         2.573471         2.526296        -0.843552
 C         2.082801         1.230815        -1.120948
 C         2.837566         0.110115        -0.559700
 H         0.285919        -1.524868        -0.145703
 H        -0.787351        -0.082673        -0.282922
 H         0.235789        -0.664831        -1.687527
 H         1.318010         1.680376         1.659674
 H         1.821422        -0.189041         1.968828
 H         4.948118        -0.280804         0.705411
 H         3.011318         3.233190         1.035928
 H         4.505613         2.679700         0.055375
 H         1.855354         1.270496        -2.220885
 H         3.417045        -0.681009        -1.077398
