19
Iteration:  1311charge 0 multiplicity 1
 C         0.158428        -0.607573        -0.427584
 C         1.313830         0.382277        -0.197093
 C         1.829540         0.638417         1.231405
 C         3.211453         0.798674         0.668388
 O         4.219234         0.129198         1.373128
 C         3.513390         2.352841         0.368628
 O         2.690382         2.516018        -0.827598
 C         2.140957         1.299051        -1.285263
 C         2.825357         0.198926        -0.629233
 H         0.388734        -1.324820         0.358851
 H        -0.835199        -0.134971        -0.430090
 H         0.124063        -1.177561        -1.357988
 H         1.466680         1.346010         1.989019
 H         1.863256        -0.231411         1.932757
 H         5.038208         0.442036         1.001250
 H         3.206301         3.022157         1.181375
 H         4.558438         2.462891         0.145662
 H         1.689985         1.276599        -2.250329
 H         3.405087        -0.671961        -1.121822
