19
Iteration:  2657charge 0 multiplicity 1
 C         0.144913        -0.503302        -0.576189
 C         1.337227         0.288284        -0.176412
 C         1.850498         0.593527         1.267735
 C         3.266155         0.790632         0.657772
 O         4.373676         0.351257         1.495624
 C         3.604224         2.218605         0.172395
 O         2.553048         2.526644        -0.755495
 C         1.987559         1.312266        -1.110993
 C         2.854148         0.106506        -0.680603
 H         0.186041        -1.559766        -0.370569
 H        -0.918285        -0.102223        -0.192357
 H         0.172843        -0.495033        -1.667633
 H         1.189684         1.336275         1.844709
 H         1.706149        -0.285663         1.942702
 H         4.331023        -0.618625         1.688709
 H         3.681190         3.009440         1.004141
 H         4.700426         2.231274        -0.279505
 H         1.555927         1.367172        -2.149587
 H         3.412097        -0.515729        -1.369079
