19
Iteration:   994charge 0 multiplicity 1
 C         0.036281        -0.376603        -0.449864
 C         1.294276         0.389347        -0.186203
 C         1.848057         0.628378         1.273272
 C         3.299881         0.771015         0.682736
 O         4.390896         0.232405         1.470710
 C         3.632735         2.271264         0.143933
 O         2.630914         2.465825        -0.869297
 C         2.040442         1.202426        -1.174603
 C         2.784027         0.005357        -0.598983
 H        -0.182952        -1.323744         0.112682
 H        -0.792858         0.303531        -0.381228
 H        -0.044927        -0.848601        -1.458031
 H         1.438963         1.513618         1.830134
 H         1.863369        -0.411660         1.717965
 H         4.816835         0.987962         2.004213
 H         3.289245         3.059653         0.797562
 H         4.648773         2.500151        -0.123223
 H         1.554337         1.194124        -2.197952
 H         3.216135        -0.764805        -1.276259
