19
Iteration:  4312
 C         0.180395        -0.441073        -0.811304
 C         1.444177         0.266815        -0.171791
 C         1.900340         0.541539         1.245024
 C         3.256717         0.794254         0.673456
 O         4.392934         0.287318         1.471920
 C         3.498541         2.314411         0.312346
 O         2.430084         2.526319        -0.590557
 C         2.048727         1.240689        -1.151137
 C         2.890625         0.151141        -0.719665
 H        -0.045161        -1.306882        -0.240945
 H        -0.743919         0.198315        -0.705544
 H         0.284065        -0.674994        -1.854297
 H         1.470268         1.377314         1.787830
 H         1.837383        -0.364083         1.867024
 H         3.959293        -0.486106         1.869859
 H         3.466133         3.040573         1.178269
 H         4.474678         2.366852        -0.212704
 H         1.572186         1.222009        -2.131453
 H         3.305418        -0.715742        -1.241887
