19
Iteration:   663charge 0 multiplicity 1
 C        -0.022944        -0.298659        -0.359584
 C         1.313336         0.322656        -0.177016
 C         1.896999         0.806551         1.199681
 C         3.362118         0.765216         0.592166
 O         4.304886         0.446242         1.581083
 C         3.772837         2.097447        -0.005727
 O         2.562982         2.395863        -0.769367
 C         2.012468         1.144452        -1.186634
 C         2.804748        -0.057397        -0.627075
 H        -0.066436        -1.306617         0.101042
 H        -0.647765         0.419959         0.211727
 H        -0.274784        -0.342115        -1.405898
 H         1.526245         1.737182         1.585657
 H         1.687055        -0.060834         1.821295
 H         4.304405        -0.506397         1.887810
 H         3.911607         2.842823         0.846951
 H         4.601431         2.059182        -0.831237
 H         1.558013         1.260497        -2.195051
 H         3.221486        -0.855531        -1.302255
