19
Iteration:  4029
 C         0.189403        -0.525893        -0.747235
 C         1.298530         0.377147        -0.158736
 C         1.826574         0.498077         1.242198
 C         3.356319         0.827690         0.711273
 O         4.408996         0.230424         1.465017
 C         3.493510         2.376632         0.322630
 O         2.541173         2.545469        -0.828007
 C         2.041919         1.279908        -1.128736
 C         2.815083         0.143147        -0.547330
 H         0.204395        -1.475854        -0.270453
 H        -0.858750        -0.037909        -0.749701
 H         0.365187        -0.585216        -1.814691
 H         1.357869         1.161400         1.972695
 H         1.806147        -0.587572         1.674301
 H         4.077800        -0.625496         1.850938
 H         3.461525         3.064249         1.151163
 H         4.512634         2.433201        -0.048020
 H         1.806604         1.277974        -2.174826
 H         3.190205        -0.666444        -1.175549
