19
Iteration:  2189charge 0 multiplicity 1
 C         0.167830        -0.525535        -0.370200
 C         1.362900         0.371548        -0.319614
 C         1.877978         0.585085         1.198138
 C         3.233153         0.805958         0.699862
 O         4.385264         0.153971         1.343884
 C         3.417310         2.327365         0.409993
 O         2.548801         2.565138        -0.782787
 C         2.119811         1.329235        -1.257887
 C         2.912881         0.124868        -0.700888
 H         0.337767        -1.232165         0.421757
 H        -0.585496         0.131465        -0.019089
 H        -0.009302        -1.263535        -1.278716
 H         1.388213         1.407793         1.706982
 H         1.609730        -0.296130         1.823768
 H         4.154254        -0.763611         1.527050
 H         2.921783         2.945385         1.202814
 H         4.418331         2.685845         0.142699
 H         1.597059         1.286609        -2.199001
 H         3.506521        -0.540254        -1.294408
