19
Iteration:   692charge 0 multiplicity 1
 C        -0.046824        -0.417287        -0.331939
 C         1.328283         0.319491        -0.166853
 C         1.886215         0.760866         1.203035
 C         3.373980         0.798166         0.666815
 O         4.322309         0.267476         1.564109
 C         3.745341         2.105704        -0.052454
 O         2.609065         2.456170        -0.870177
 C         1.983743         1.256527        -1.213738
 C         2.775025         0.048083        -0.546125
 H         0.019137        -1.444493        -0.054530
 H        -0.829331         0.216937         0.136053
 H        -0.239174        -0.390439        -1.417646
 H         1.403268         1.734918         1.580524
 H         1.654546        -0.170246         1.779779
 H         4.259972         0.701828         2.457219
 H         4.170120         2.852693         0.601073
 H         4.602709         2.017246        -0.673157
 H         1.688357         1.352441        -2.208805
 H         3.201303        -0.830129        -1.075702
