19
Iteration:  4992charge 0 multiplicity 1
 C         0.120256        -0.550990        -0.678718
 C         1.344559         0.312366        -0.358126
 C         1.849817         0.668139         1.043205
 C         3.349629         0.821340         0.608184
 O         4.381515         0.263292         1.607354
 C         3.598027         2.234140         0.351642
 O         2.408760         2.502305        -0.501073
 C         2.054757         1.267209        -1.168604
 C         2.955293         0.119017        -0.769889
 H         0.139198        -1.496059         0.038389
 H        -0.751752        -0.023924        -0.238927
 H        -0.175602        -0.871460        -1.676012
 H         1.418079         1.563240         1.495487
 H         1.759556        -0.044107         1.875353
 H         3.877739        -0.068913         2.315705
 H         3.553098         2.898103         1.197500
 H         4.392531         2.548550        -0.331382
 H         1.930788         1.438491        -2.226683
 H         3.327088        -0.565152        -1.541993
