19
Iteration:   614
 C        -0.063522        -0.353404        -0.360788
 C         1.235473         0.404061        -0.110345
 C         1.876657         0.813022         1.290194
 C         3.285007         0.888505         0.704550
 O         4.353003         0.054632         1.380586
 C         3.573787         2.352540         0.100239
 O         2.733308         2.364938        -1.040110
 C         2.077368         1.092697        -1.155844
 C         2.792113         0.070873        -0.450750
 H        -0.169048        -1.061963         0.450452
 H        -0.930820         0.267864        -0.448872
 H         0.234017        -0.896234        -1.277608
 H         1.479750         1.775999         1.778960
 H         1.952062        -0.013141         2.028639
 H         5.220884         0.365791         1.133525
 H         3.169249         3.038231         0.815962
 H         4.669989         2.489119        -0.167008
 H         1.870528         1.019435        -2.261363
 H         3.178924        -0.845302        -0.781025
