19
Iteration:  2176
 C         0.156744        -0.518839        -0.373520
 C         1.419696         0.288410        -0.236689
 C         1.784143         0.662484         1.200052
 C         3.322673         0.720265         0.684907
 O         4.457321         0.151509         1.345197
 C         3.327031         2.311882         0.410025
 O         2.560880         2.555968        -0.793647
 C         2.069680         1.284439        -1.260789
 C         2.874421         0.237667        -0.738953
 H         0.130746        -1.460903         0.233708
 H        -0.779126         0.000948        -0.173716
 H        -0.064613        -0.723786        -1.462950
 H         1.505372         1.605069         1.661864
 H         1.654175        -0.206204         1.821315
 H         4.171470        -0.641267         1.869318
 H         3.089824         3.011586         1.266088
 H         4.472282         2.535892         0.247068
 H         1.959019         1.363138        -2.299489
 H         3.502358        -0.554542        -1.283245
