19
Iteration:  3157
 C         0.180874        -0.450183        -0.651305
 C         1.384449         0.315437        -0.188196
 C         1.802775         0.661309         1.250576
 C         3.319151         0.746640         0.657069
 O         4.439191         0.288873         1.359358
 C         3.495395         2.266920         0.292905
 O         2.480858         2.532402        -0.662385
 C         2.047419         1.245090        -1.191657
 C         2.834843         0.108601        -0.591864
 H         0.296368        -1.578302        -0.247308
 H        -0.830542        -0.038741        -0.468556
 H         0.319738        -0.575182        -1.715892
 H         1.282360         1.543763         1.790645
 H         1.899636        -0.204034         1.893371
 H         4.103730        -0.533979         1.713596
 H         3.386151         2.911718         1.171398
 H         4.545071         2.323554        -0.211155
 H         1.576375         1.246082        -2.156621
 H         3.303674        -0.869114        -0.916825
