19
Iteration:  1586charge 0 multiplicity 1
 C         0.161499        -0.483545        -0.540296
 C         1.363841         0.325055        -0.258113
 C         1.807545         0.558632         1.231818
 C         3.289331         0.807329         0.724464
 O         4.332236         0.223866         1.506837
 C         3.482596         2.273174         0.363814
 O         2.625480         2.509585        -0.845060
 C         2.031478         1.342591        -1.178034
 C         2.844730         0.116376        -0.674305
 H         0.334677        -1.460378        -0.138339
 H        -0.705309        -0.052390        -0.137776
 H        -0.074233        -0.620395        -1.623566
 H         1.280442         1.388755         1.755798
 H         1.654040        -0.415423         1.756834
 H         5.083816         0.386530         0.931540
 H         3.183146         2.999467         1.124753
 H         4.527907         2.384849         0.006673
 H         1.690619         1.206626        -2.179503
 H         3.309146        -0.743563        -1.179192
