19
Iteration:   295charge 0 multiplicity 1
 C        -0.083120        -0.370872        -0.136872
 C         1.241535         0.481436        -0.138481
 C         1.886445         1.024299         1.181998
 C         3.328621         0.814377         0.686304
 O         4.370700         0.115473         1.462701
 C         3.686261         2.210304         0.070101
 O         2.652866         2.351484        -1.045435
 C         2.091314         1.104986        -1.258131
 C         2.758579        -0.012629        -0.490314
 H        -0.024593        -1.373489         0.419141
 H        -0.909614         0.311317         0.269653
 H        -0.462795        -0.511994        -1.195094
 H         1.606030         2.018586         1.638155
 H         1.787768         0.271916         1.976585
 H         4.711610        -0.563179         0.869453
 H         3.573727         2.982702         0.832486
 H         4.708220         2.316508        -0.348300
 H         1.876048         1.065105        -2.364919
 H         3.223215        -0.934499        -0.821233
