19
Iteration:  2242
 C         0.176584        -0.515108        -0.715745
 C         1.308223         0.271686        -0.147523
 C         1.796943         0.678367         1.263907
 C         3.301138         0.764193         0.657805
 O         4.522797         0.334097         1.471329
 C         3.601502         2.157814         0.116945
 O         2.437269         2.549114        -0.607901
 C         1.915653         1.309770        -1.042668
 C         2.856910         0.119739        -0.652987
 H         0.074780        -1.537272        -0.332358
 H        -0.754989         0.043454        -0.599503
 H         0.360677        -0.559637        -1.856013
 H         1.328259         1.626069         1.568399
 H         1.765380        -0.157526         1.975164
 H         4.522845        -0.606889         1.694253
 H         3.914304         2.939316         0.876470
 H         4.468470         2.189759        -0.641414
 H         1.616539         1.294231        -2.089236
 H         3.237476        -0.709672        -1.219955
