19
Iteration:  4358charge 0 multiplicity 1
 C         0.137779        -0.700046        -0.538991
 C         1.293620         0.324235        -0.256075
 C         1.808736         0.592117         1.069887
 C         3.305521         0.821770         0.725022
 O         4.334757         0.234100         1.421099
 C         3.471560         2.314230         0.514057
 O         2.616585         2.562153        -0.644515
 C         2.157431         1.391589        -1.311680
 C         2.859343         0.180463        -0.728270
 H         0.208063        -1.440162         0.188572
 H        -0.963151        -0.342186        -0.408965
 H         0.254622        -1.095531        -1.510359
 H         1.370561         1.387969         1.551827
 H         1.827239        -0.278866         1.791790
 H         4.295208        -0.676484         1.218373
 H         3.005449         2.966475         1.277344
 H         4.484078         2.715304         0.279316
 H         1.919948         1.717911        -2.312446
 H         3.352210        -0.695469        -1.252246
