19
Iteration:  1550
 C         0.037476        -0.435114        -0.592120
 C         1.478525         0.249647        -0.265713
 C         1.994142         0.497053         1.148269
 C         3.294707         0.842358         0.662512
 O         4.156989         0.348720         1.631427
 C         3.665479         2.167436         0.161468
 O         2.460939         2.508656        -0.646886
 C         2.022810         1.283531        -1.144192
 C         2.870327         0.139423        -0.733699
 H        -0.050041        -1.377534         0.002791
 H        -0.820894         0.206524        -0.137410
 H        -0.084574        -0.695201        -1.635665
 H         1.556287         1.210853         1.784411
 H         2.018801        -0.455390         1.690589
 H         5.052568         0.703173         1.603625
 H         4.051677         2.790684         0.993521
 H         4.475526         2.122471        -0.559863
 H         1.694406         1.594882        -2.158109
 H         3.226810        -0.666547        -1.232474
