19
Iteration:  2804charge 0 multiplicity 1
 C         0.146775        -0.485033        -0.526444
 C         1.340824         0.287329        -0.220506
 C         1.795565         0.699566         1.185395
 C         3.259054         0.854056         0.705839
 O         4.354195         0.254895         1.368000
 C         3.566114         2.251407         0.263712
 O         2.506694         2.516038        -0.657764
 C         2.108686         1.208916        -1.227548
 C         2.910650         0.096047        -0.606755
 H         0.083980        -1.559085        -0.099081
 H        -0.644353         0.098611        -0.107623
 H        -0.117141        -0.598574        -1.618106
 H         1.379210         1.690027         1.579331
 H         1.746819        -0.059833         1.986457
 H         4.190043        -0.677492         1.318908
 H         3.525002         2.880833         1.151828
 H         4.606932         2.446110        -0.241659
 H         1.609532         1.158618        -2.181934
 H         3.693718        -0.574515        -1.100282
