19
Iteration:  4276charge 0 multiplicity 1
 C         0.098757        -0.417697        -0.851760
 C         1.402403         0.185180        -0.235927
 C         1.811148         0.548234         1.200516
 C         3.327159         0.764215         0.713579
 O         4.454958         0.371352         1.521011
 C         3.563659         2.245448         0.271585
 O         2.400990         2.579543        -0.527564
 C         2.048866         1.268704        -1.122798
 C         2.884247         0.082156        -0.727110
 H         0.075359        -1.559301        -0.622875
 H        -0.653723        -0.044722        -0.241692
 H        -0.074303        -0.354150        -1.957706
 H         1.408620         1.519721         1.724917
 H         1.682588        -0.310782         1.824545
 H         4.370439        -0.371814         2.173136
 H         3.682004         3.068852         1.006446
 H         4.477537         2.137050        -0.337661
 H         1.728096         1.389552        -2.196453
 H         3.353421        -0.713517        -1.300347
