19
Iteration:  3625
 C         0.220682        -0.622997        -0.595744
 C         1.368760         0.332769        -0.224930
 C         1.701717         0.488836         1.190669
 C         3.165447         0.846253         0.775998
 O         4.418430         0.287335         1.354273
 C         3.495354         2.296078         0.416896
 O         2.689948         2.590912        -0.779032
 C         2.002187         1.349531        -1.179752
 C         2.861152         0.175548        -0.651868
 H         0.113771        -1.481341         0.003900
 H        -0.718227         0.011845        -0.406536
 H         0.327363        -1.018273        -1.610198
 H         1.280227         1.357713         1.813360
 H         1.593551        -0.509425         1.680686
 H         4.466412        -0.689053         1.326277
 H         3.161574         2.838312         1.276058
 H         4.510652         2.475845         0.080421
 H         1.775860         1.401775        -2.233656
 H         3.356314        -0.734778        -0.977316
