19
Iteration:  3877
 C         0.229376        -0.470510        -0.624699
 C         1.469640         0.290482        -0.273381
 C         1.708504         0.592027         1.198324
 C         3.289054         0.788482         0.729395
 O         4.390965         0.318217         1.467830
 C         3.513307         2.242429         0.369739
 O         2.472796         2.546121        -0.663678
 C         2.079708         1.249659        -1.309205
 C         2.853694         0.120129        -0.642602
 H         0.103342        -1.446632        -0.199492
 H        -0.664386         0.181090        -0.282402
 H         0.230527        -0.661570        -1.689803
 H         1.363989         1.502773         1.629846
 H         1.525383        -0.247642         1.872512
 H         4.229395        -0.585131         1.860407
 H         3.462933         2.955471         1.183081
 H         4.552353         2.388770        -0.159981
 H         1.644654         1.066797        -2.270394
 H         3.393883        -0.645156        -1.243821
