19
Iteration:   607
 C         0.048070        -0.364710        -0.354235
 C         1.234569         0.404828        -0.063849
 C         1.905064         0.807742         1.257700
 C         3.286258         0.921163         0.680427
 O         4.327302         0.057599         1.376007
 C         3.541816         2.294723         0.171564
 O         2.798234         2.382370        -1.076277
 C         2.036218         1.099987        -1.180069
 C         2.719143         0.061192        -0.469652
 H        -0.226985        -0.905780         0.563087
 H        -0.874016         0.305513        -0.501192
 H         0.127155        -0.955449        -1.256823
 H         1.461386         1.544753         1.896523
 H         1.953708        -0.011475         1.971080
 H         5.080734         0.661684         1.352609
 H         3.253386         3.104499         0.909850
 H         4.588196         2.520752        -0.330945
 H         1.663847         0.982005        -2.123879
 H         3.093950        -0.913677        -0.855369
