19
Iteration:   801charge 0 multiplicity 1
 C        -0.018990        -0.307869        -0.425408
 C         1.290115         0.353430        -0.148548
 C         1.903219         0.677407         1.186521
 C         3.357115         0.740322         0.684672
 O         4.396581         0.287069         1.573483
 C         3.701007         2.184965        -0.048419
 O         2.520755         2.452250        -0.801125
 C         2.061702         1.170711        -1.138083
 C         2.784700        -0.006675        -0.630996
 H        -0.443476        -0.966164         0.381258
 H        -0.764773         0.622908        -0.414921
 H        -0.156831        -0.866128        -1.424229
 H         1.383039         1.607889         1.602419
 H         1.704010        -0.247949         1.773719
 H         4.609101         1.047027         2.139205
 H         3.674439         2.988177         0.731927
 H         4.645907         1.982299        -0.605573
 H         1.699658         1.124554        -2.171371
 H         3.408184        -0.794515        -1.191099
