19
Iteration:  4326charge 0 multiplicity 1
 C         0.242510        -0.494650        -0.631285
 C         1.457226         0.225714        -0.231729
 C         1.764147         0.530226         1.205114
 C         3.275294         0.756360         0.733040
 O         4.358245         0.286570         1.383915
 C         3.463741         2.208344         0.351959
 O         2.468327         2.631341        -0.662669
 C         2.104957         1.363689        -1.205823
 C         2.871659         0.133842        -0.659090
 H         0.018803        -1.342639         0.014462
 H        -0.635614         0.290342        -0.738735
 H         0.322421        -0.873707        -1.658066
 H         1.236840         1.306442         1.701282
 H         1.709451        -0.360464         1.925828
 H         4.217861        -0.637720         1.754435
 H         3.311508         2.913174         1.186019
 H         4.488186         2.412081        -0.087285
 H         1.776058         1.577873        -2.203528
 H         3.554919        -0.564377        -1.244219
