19
Iteration:   538
 C        -0.069456        -0.302675        -0.341566
 C         1.345600         0.324915        -0.103358
 C         1.844372         0.883277         1.199143
 C         3.388473         0.820741         0.588327
 O         4.307108         0.298957         1.504586
 C         3.734468         2.192049        -0.044324
 O         2.530260         2.399722        -0.778729
 C         2.119239         1.057703        -1.170124
 C         2.821608        -0.022088        -0.564335
 H        -0.229320        -0.955554         0.481228
 H        -0.732256         0.541094        -0.140100
 H        -0.212951        -0.654376        -1.381438
 H         1.349137         1.836060         1.519086
 H         1.714240         0.260528         2.090510
 H         4.371043        -0.698374         1.483128
 H         3.907259         3.046569         0.623561
 H         4.643579         1.841897        -0.768798
 H         1.680207         1.078269        -2.242515
 H         3.281303        -0.840612        -1.106448
