19
Iteration:  4954charge 0 multiplicity 1
 C         0.326993        -0.570881        -0.653377
 C         1.433512         0.303158        -0.214791
 C         1.734162         0.596229         1.318384
 C         3.154777         0.817132         0.670555
 O         4.257067         0.187533         1.293636
 C         3.483475         2.359838         0.409844
 O         2.616007         2.566992        -0.759369
 C         2.072251         1.320068        -1.144190
 C         2.904304         0.176243        -0.651502
 H         0.470122        -1.507387        -0.119420
 H        -0.600913        -0.144269        -0.208624
 H         0.322750        -0.771823        -1.756244
 H         1.079777         1.379605         1.772090
 H         1.816573        -0.402574         1.770051
 H         3.825798        -0.368940         1.991957
 H         3.569698         3.045139         1.285526
 H         4.530115         2.149861         0.129976
 H         1.690635         1.314341        -2.179870
 H         3.392579        -0.695287        -1.125617
