19
Iteration:   956
 C         0.062724        -0.342855        -0.534260
 C         1.398961         0.249794        -0.158320
 C         1.820705         0.868100         1.212859
 C         3.327566         0.849616         0.673118
 O         4.376494         0.295058         1.417910
 C         3.688370         2.215188         0.040246
 O         2.425447         2.364168        -0.642445
 C         2.065541         1.121832        -1.165010
 C         2.872076        -0.008376        -0.571841
 H        -0.313907        -1.105933         0.096677
 H        -0.662133         0.518182        -0.323114
 H         0.094523        -0.426442        -1.600506
 H         1.497447         1.801892         1.600094
 H         1.639093         0.217029         2.033031
 H         4.014528        -0.477492         1.868293
 H         3.857445         2.948561         0.851966
 H         4.555597         2.090900        -0.645903
 H         1.640393         1.233929        -2.154713
 H         3.396256        -0.711459        -1.157008
