19
Iteration:  4659
 C         0.189769        -0.523513        -0.704162
 C         1.324969         0.314849        -0.174911
 C         1.854316         0.487286         1.271616
 C         3.271657         0.867311         0.715039
 O         4.296902         0.243693         1.382155
 C         3.465275         2.335623         0.437841
 O         2.647644         2.543589        -0.790655
 C         2.070716         1.309163        -1.144706
 C         2.833814         0.118978        -0.657602
 H         0.213215        -1.422453        -0.059371
 H        -0.699965         0.030015        -0.728643
 H         0.333878        -0.802834        -1.773332
 H         1.277460         1.189938         1.969481
 H         2.048687        -0.399290         1.828333
 H         4.127419        -0.689535         1.527862
 H         3.014586         3.094703         1.134745
 H         4.537559         2.555455         0.198890
 H         1.757596         1.430153        -2.227686
 H         3.531402        -0.410078        -1.316532
