19
Iteration:  1348charge 0 multiplicity 1
 C         0.179839        -0.519285        -0.581610
 C         1.320330         0.362834        -0.201061
 C         1.790063         0.564096         1.258938
 C         3.283938         0.764043         0.682660
 O         4.373359         0.341060         1.443527
 C         3.578133         2.200081         0.303144
 O         2.639126         2.527264        -0.810246
 C         1.977919         1.301771        -1.140215
 C         2.808671         0.130884        -0.682999
 H         0.013940        -1.220197         0.271009
 H        -0.762978         0.023344        -0.488959
 H         0.277758        -1.123375        -1.551537
 H         1.473331         1.466016         1.716771
 H         1.782760        -0.320810         1.825808
 H         4.302486        -0.515897         1.835847
 H         3.434318         2.962451         1.071759
 H         4.587624         2.394564        -0.148010
 H         1.428292         1.368288        -2.119100
 H         3.379340        -0.490285        -1.280707
