19
Iteration:  2933charge 0 multiplicity 1
 C         0.190659        -0.454006        -0.525951
 C         1.399653         0.378287        -0.170586
 C         1.834077         0.637730         1.245287
 C         3.292734         0.739246         0.681095
 O         4.360587         0.191717         1.432033
 C         3.416291         2.326791         0.268425
 O         2.526459         2.519756        -0.751702
 C         2.079023         1.240414        -1.217338
 C         2.933444         0.139966        -0.635394
 H        -0.085132        -1.185538         0.139951
 H        -0.766377         0.136473        -0.469725
 H         0.301451        -0.721065        -1.609597
 H         1.315660         1.437215         1.816477
 H         1.561988        -0.211157         1.858872
 H         4.411271        -0.703226         1.011649
 H         3.048727         2.986200         1.020007
 H         4.441486         2.544299        -0.019011
 H         1.837070         1.066871        -2.278280
 H         3.375389        -0.747138        -1.163898
