19
Iteration:  3193charge 0 multiplicity 1
 C         0.159721        -0.644778        -0.439703
 C         1.327758         0.314609        -0.235743
 C         1.803561         0.539125         1.164424
 C         3.267932         0.833596         0.613267
 O         4.310496         0.080759         1.379183
 C         3.495206         2.339566         0.357621
 O         2.694606         2.625892        -0.774430
 C         2.044365         1.367713        -1.178675
 C         2.866188         0.209352        -0.678814
 H         0.508596        -1.531265         0.216156
 H        -0.834375        -0.346792        -0.148659
 H         0.036860        -1.056303        -1.466996
 H         1.258603         1.254066         1.729397
 H         1.762388        -0.410376         1.746386
 H         4.287191         0.768829         2.014875
 H         3.223065         3.098441         1.182052
 H         4.569258         2.577616         0.193624
 H         1.621760         1.480680        -2.200710
 H         3.292833        -0.568646        -1.245705
