19
Iteration:  4667charge 0 multiplicity 1
 C         0.193407        -0.492694        -0.758675
 C         1.328468         0.330526        -0.172414
 C         1.880343         0.506896         1.217740
 C         3.271122         0.789316         0.667148
 O         4.342850         0.264622         1.466332
 C         3.498218         2.347714         0.429987
 O         2.603690         2.574355        -0.815175
 C         2.057105         1.288222        -1.082400
 C         2.803433         0.111952        -0.646303
 H        -0.023562        -1.346826        -0.200335
 H        -0.831342        -0.047394        -0.627796
 H         0.480830        -0.862776        -1.791884
 H         1.581254         1.233130         1.964238
 H         1.952840        -0.474920         1.737692
 H         4.104396        -0.650921         1.513000
 H         3.060615         2.887768         1.281641
 H         4.472331         2.671954         0.140228
 H         1.506664         1.154254        -2.060071
 H         3.548988        -0.477941        -1.300941
