19
Iteration:   580charge 0 multiplicity 1
 C         0.069751        -0.322724        -0.276309
 C         1.278151         0.458706        -0.070908
 C         1.861599         0.731973         1.370422
 C         3.219262         0.739692         0.670031
 O         4.380650         0.251156         1.389892
 C         3.541030         2.107600         0.082824
 O         2.788795         2.400707        -1.038775
 C         2.074287         1.221750        -1.198063
 C         2.750118         0.024990        -0.666879
 H        -0.125339        -0.869481         0.662755
 H        -0.844378         0.064541        -0.630814
 H         0.230002        -1.139972        -1.058867
 H         1.613790         1.761039         1.819145
 H         1.623631         0.036040         2.208343
 H         4.127982         0.769514         2.158384
 H         3.413088         2.918446         0.850461
 H         4.600631         2.295562        -0.263467
 H         1.547603         1.205466        -2.246966
 H         2.962588        -0.938619        -1.131487
