19
Iteration:   497
 C         0.008168        -0.354169        -0.313747
 C         1.340515         0.434082        -0.067423
 C         1.871607         0.937671         1.289070
 C         3.355060         0.804145         0.664060
 O         4.247467         0.152081         1.482303
 C         3.769687         2.228021        -0.007878
 O         2.595108         2.398695        -0.958036
 C         2.050096         1.088199        -1.190566
 C         2.739400        -0.064406        -0.568510
 H        -0.100374        -1.438424        -0.084155
 H        -0.911510         0.107636         0.237852
 H        -0.093258        -0.348969        -1.417939
 H         1.685020         1.941926         1.669795
 H         1.788231         0.117935         2.009464
 H         5.058314         0.673329         1.557692
 H         3.636873         3.048086         0.698776
 H         4.662859         2.222352        -0.537647
 H         1.486151         1.005036        -2.191167
 H         3.070347        -0.951104        -1.059218
