19
Iteration:  4387
 C         0.294731        -0.552828        -0.650012
 C         1.399043         0.332364        -0.206584
 C         1.814368         0.557364         1.179509
 C         3.257999         0.786387         0.721808
 O         4.264598         0.199196         1.468938
 C         3.491367         2.254404         0.335260
 O         2.537496         2.614814        -0.705742
 C         1.981338         1.353604        -1.147593
 C         2.938741         0.185979        -0.701000
 H         0.484197        -1.556795        -0.089962
 H        -0.632830        -0.289883        -0.200284
 H         0.289438        -0.781963        -1.734923
 H         1.357521         1.564341         1.510529
 H         1.784949        -0.248586         1.919919
 H         4.164210        -0.778077         1.330635
 H         3.322250         2.939529         1.193024
 H         4.507518         2.342024        -0.034530
 H         1.674643         1.371323        -2.173972
 H         3.460272        -0.500410        -1.369145
