19
Iteration:   470charge 0 multiplicity 1
 C        -0.006765        -0.439029        -0.196185
 C         1.262577         0.458811        -0.137673
 C         1.781716         0.786020         1.277183
 C         3.276146         0.835229         0.740617
 O         4.375310         0.260231         1.348910
 C         3.697577         2.112417         0.094569
 O         2.846816         2.375127        -1.070678
 C         2.044208         1.224037        -1.241787
 C         2.633492         0.061462        -0.554853
 H         0.015077        -1.389856         0.316112
 H        -0.764403         0.065732         0.315891
 H        -0.264764        -0.719731        -1.222636
 H         1.530390         1.732255         1.809484
 H         1.761049        -0.086191         1.954516
 H         4.460406         0.754527         2.186658
 H         3.494585         2.965300         0.739809
 H         4.758694         1.860662        -0.246221
 H         1.587400         1.160476        -2.169905
 H         2.989066        -0.895736        -1.002382
