19
Iteration:  3113charge 0 multiplicity 1
 C         0.088151        -0.420139        -0.628496
 C         1.453136         0.199710        -0.210402
 C         1.852062         0.568971         1.196816
 C         3.323655         0.797261         0.649909
 O         4.305333         0.258353         1.559559
 C         3.637049         2.213876         0.173008
 O         2.384196         2.551237        -0.619811
 C         2.032266         1.227291        -1.128181
 C         2.912429         0.140589        -0.699066
 H        -0.345403        -1.337264        -0.034554
 H        -0.581190         0.401494        -0.368736
 H         0.167761        -0.581774        -1.674667
 H         1.410448         1.545105         1.517087
 H         1.665797        -0.288639         1.796083
 H         5.106245         0.573370         1.123289
 H         3.568227         2.952754         0.924791
 H         4.547066         2.254842        -0.517406
 H         1.538080         1.498108        -2.045219
 H         3.678170        -0.625665        -1.053177
