19
Iteration:  3069
 C         0.156794        -0.614545        -0.458169
 C         1.350422         0.401042        -0.279694
 C         1.781096         0.614192         1.205753
 C         3.243973         0.667380         0.692065
 O         4.338588         0.145165         1.399221
 C         3.491192         2.365012         0.352502
 O         2.676825         2.621328        -0.781015
 C         2.038934         1.249953        -1.241848
 C         2.877838         0.171830        -0.664319
 H         0.102201        -1.442463         0.339012
 H        -0.720909        -0.106803        -0.123082
 H         0.105082        -0.973789        -1.451788
 H         1.525385         1.518870         1.770147
 H         1.716851        -0.302385         1.715111
 H         4.779788         0.673185         2.046740
 H         3.053628         2.919668         1.155518
 H         4.448740         2.667386         0.007540
 H         1.723046         1.259322        -2.303854
 H         3.120424        -0.653536        -1.395125
