19
Iteration:  3719
 C         0.108894        -0.544588        -0.527630
 C         1.364395         0.251157        -0.364616
 C         1.755884         0.590946         1.094119
 C         3.365582         0.845430         0.691651
 O         4.278893         0.324454         1.550266
 C         3.586004         2.283730         0.301636
 O         2.501566         2.522600        -0.588417
 C         2.148177         1.282800        -1.167062
 C         2.925147         0.132119        -0.758661
 H         0.031228        -1.540999         0.019819
 H        -0.642788         0.052935        -0.097689
 H        -0.171492        -0.790001        -1.583996
 H         1.119435         1.223157         1.628541
 H         1.771717        -0.399557         1.561511
 H         4.300264        -0.681295         1.542444
 H         3.329307         3.076832         1.089062
 H         4.563067         2.503538        -0.249782
 H         1.902233         1.449035        -2.192290
 H         3.641115        -0.454857        -1.398170
