19
Iteration:  4080charge 0 multiplicity 1
 C         0.120375        -0.546924        -0.522921
 C         1.362838         0.279183        -0.325563
 C         1.737671         0.592453         1.174309
 C         3.224050         0.802817         0.730901
 O         4.418672         0.294420         1.339891
 C         3.388860         2.283440         0.460764
 O         2.692716         2.535545        -0.750375
 C         2.140672         1.312770        -1.229521
 C         2.861122         0.134707        -0.620509
 H         0.323586        -1.495756         0.063026
 H        -0.705381        -0.054467        -0.093813
 H        -0.139410        -0.722588        -1.600514
 H         1.231782         1.399162         1.732355
 H         1.841423        -0.287296         1.758033
 H         4.423420        -0.718458         1.301392
 H         2.829366         2.928304         1.181146
 H         4.451546         2.538679         0.603664
 H         1.818838         1.475211        -2.228871
 H         3.502761        -0.553523        -1.229682
