19
Iteration:  1175
 C         0.157375        -0.454862        -0.414503
 C         1.362238         0.321588        -0.180331
 C         1.776452         0.720668         1.268328
 C         3.248409         0.789159         0.735558
 O         4.367399         0.075062         1.233951
 C         3.414713         2.338625         0.334615
 O         2.634894         2.547832        -0.919339
 C         2.122999         1.223952        -1.208729
 C         2.878878         0.103328        -0.592729
 H         0.165218        -1.269941         0.258924
 H        -0.671264         0.212634        -0.397546
 H         0.072636        -0.947154        -1.333876
 H         1.283486         1.647621         1.689205
 H         1.601698        -0.030812         2.065570
 H         4.393459        -0.115703         2.207511
 H         2.982595         3.035045         1.072434
 H         4.446281         2.524188         0.216577
 H         1.884217         1.170477        -2.300371
 H         3.656142        -0.622901        -0.901970
