19
Iteration:  4336
 C         0.222571        -0.588060        -0.597062
 C         1.432406         0.295539        -0.299081
 C         1.710391         0.583913         1.174998
 C         3.202270         0.720183         0.715164
 O         4.379631         0.279744         1.359661
 C         3.477596         2.252574         0.413382
 O         2.552520         2.610656        -0.668141
 C         2.068894         1.363188        -1.184465
 C         2.932613         0.168325        -0.640517
 H         0.092282        -1.189151         0.244022
 H        -0.716253         0.098224        -0.455102
 H         0.135264        -1.146220        -1.498832
 H         1.228687         1.314264         1.729424
 H         1.555929        -0.465738         1.553247
 H         4.341308        -0.717711         1.554100
 H         3.222943         2.905739         1.277233
 H         4.537772         2.432938         0.073226
 H         1.863635         1.361367        -2.235410
 H         3.645356        -0.295600        -1.360950
