19
Iteration:  4113charge 0 multiplicity 1
 C         0.162633        -0.364177        -0.617671
 C         1.437301         0.273878        -0.245657
 C         1.883496         0.502806         1.142225
 C         3.301392         0.803562         0.673961
 O         4.328461         0.231612         1.541083
 C         3.465084         2.329060         0.238187
 O         2.411756         2.533111        -0.657108
 C         2.060568         1.261479        -1.177431
 C         2.991375         0.105629        -0.682682
 H         0.129636        -1.421799        -0.234287
 H        -0.626904         0.128734        -0.142672
 H        -0.028644        -0.502573        -1.701971
 H         1.373653         1.249143         1.772158
 H         2.038306        -0.360953         1.703152
 H         4.047157        -0.535097         2.057623
 H         3.267078         3.006861         1.101081
 H         4.486544         2.416729        -0.165758
 H         1.656420         1.423806        -2.150843
 H         3.570419        -0.500960        -1.415714
