19
Iteration:  1508charge 0 multiplicity 1
 C         0.103962        -0.503046        -0.658001
 C         1.410548         0.270689        -0.254329
 C         1.835246         0.776558         1.194022
 C         3.349705         0.788868         0.728786
 O         4.356355         0.164716         1.452157
 C         3.466840         2.240940         0.263116
 O         2.459137         2.533583        -0.645195
 C         2.112223         1.210921        -1.187791
 C         2.873829         0.119796        -0.559338
 H        -0.188364        -1.330085        -0.042450
 H        -0.691947         0.164931        -0.382092
 H         0.165031        -0.845550        -1.698693
 H         1.484155         1.810777         1.429158
 H         1.756528        -0.002100         2.019372
 H         5.054981         0.178018         0.813134
 H         3.331178         3.106298         0.947869
 H         4.547241         2.414705        -0.137727
 H         1.686745         1.216632        -2.230655
 H         3.354660        -0.665834        -1.002673
