19
Iteration:  1307charge 0 multiplicity 1
 C         0.181604        -0.571768        -0.433371
 C         1.348112         0.357115        -0.222640
 C         1.845904         0.666570         1.244459
 C         3.207552         0.781080         0.636805
 O         4.206900         0.102000         1.363292
 C         3.487163         2.367384         0.344645
 O         2.674170         2.498433        -0.821304
 C         2.110844         1.278158        -1.225818
 C         2.850763         0.203496        -0.632406
 H         0.407997        -1.286346         0.360707
 H        -0.830243        -0.102026        -0.331095
 H         0.202131        -1.073257        -1.386015
 H         1.403958         1.497813         1.935636
 H         1.773543        -0.272466         1.918666
 H         5.086266         0.597787         1.167648
 H         3.189720         3.016275         1.196290
 H         4.594942         2.444739         0.175745
 H         1.732369         1.314995        -2.275264
 H         3.333405        -0.649117        -1.048006
