19
Iteration:   299
 C        -0.062776        -0.358395        -0.139794
 C         1.290648         0.467853        -0.121929
 C         1.879007         1.032764         1.154812
 C         3.318747         0.824400         0.677808
 O         4.353426         0.119596         1.430351
 C         3.673971         2.198193         0.095475
 O         2.678534         2.375024        -1.043263
 C         2.075660         1.073743        -1.274769
 C         2.754725        -0.004713        -0.458880
 H         0.055439        -1.259692         0.421318
 H        -0.881955         0.261899         0.284380
 H        -0.502257        -0.545748        -1.125701
 H         1.603791         1.914794         1.776011
 H         1.722786         0.277724         1.936957
 H         4.483165        -0.665741         0.817487
 H         3.501850         3.030401         0.826363
 H         4.709178         2.356170        -0.345162
 H         1.788219         0.923130        -2.257715
 H         3.233682        -0.933910        -0.794880
