19
Iteration:  1419
 C         0.071863        -0.434739        -0.562156
 C         1.463461         0.248397        -0.277925
 C         1.847618         0.634650         1.223663
 C         3.237478         0.814875         0.672877
 O         4.273293         0.237964         1.486960
 C         3.598025         2.231112         0.269718
 O         2.487222         2.509357        -0.665130
 C         2.096691         1.270820        -1.242281
 C         2.908373         0.093735        -0.652170
 H         0.042767        -1.474491        -0.182468
 H        -0.709814         0.090990         0.078535
 H        -0.277717        -0.461387        -1.577759
 H         1.330509         1.590740         1.582028
 H         1.690108        -0.306628         1.868125
 H         5.083854         0.674322         1.284579
 H         3.500410         2.951804         1.121514
 H         4.662245         2.257730        -0.160464
 H         1.704895         1.180965        -2.233442
 H         3.497702        -0.687759        -1.172491
