19
Iteration:  4928charge 0 multiplicity 1
 C         0.255895        -0.643192        -0.761654
 C         1.281096         0.307438        -0.155807
 C         1.886934         0.588446         1.293157
 C         3.285615         0.789168         0.718745
 O         4.376926         0.164174         1.434371
 C         3.418619         2.372839         0.416387
 O         2.702182         2.545696        -0.865036
 C         2.016729         1.390748        -1.169434
 C         2.740700         0.225707        -0.608117
 H         0.310244        -1.626104        -0.371245
 H        -0.753590        -0.287409        -0.493514
 H         0.447088        -0.666112        -1.846814
 H         1.402718         1.456802         1.708371
 H         1.900681        -0.295044         1.997915
 H         3.943481        -0.601156         1.884826
 H         3.042647         2.888576         1.279205
 H         4.481704         2.694727         0.328838
 H         1.674682         1.365094        -2.196048
 H         3.044852        -0.571822        -1.268740
