19
Iteration:  4419
 C         0.155560        -0.551988        -0.847689
 C         1.404650         0.255684        -0.219454
 C         1.828297         0.578189         1.219282
 C         3.283027         0.817399         0.689818
 O         4.362434         0.307987         1.452389
 C         3.601373         2.271095         0.188266
 O         2.413862         2.601805        -0.496355
 C         2.098837         1.343767        -1.150383
 C         2.857572         0.076970        -0.562606
 H         0.322730        -1.732167        -0.584476
 H        -0.784950        -0.239613        -0.381790
 H        -0.090459        -0.471842        -1.976037
 H         1.197242         1.502689         1.640342
 H         1.790233        -0.223526         1.994342
 H         4.082664        -0.465753         1.902683
 H         3.797600         2.919165         1.067235
 H         4.508897         2.221827        -0.437924
 H         2.049802         1.215396        -2.194311
 H         3.331516        -0.681730        -1.187847
