19
Iteration:  4146charge 0 multiplicity 1
 C         0.083629        -0.487344        -0.800846
 C         1.382094         0.195398        -0.238798
 C         1.858058         0.589397         1.165098
 C         3.277020         0.743849         0.672558
 O         4.442771         0.396072         1.553832
 C         3.583840         2.217419         0.193656
 O         2.431511         2.538516        -0.468684
 C         2.023200         1.299472        -1.094206
 C         2.898498         0.091066        -0.737720
 H        -0.029652        -1.492419        -0.314464
 H        -0.776202         0.071882        -0.706672
 H         0.144984        -0.634483        -1.895088
 H         1.343246         1.503564         1.483008
 H         1.889149        -0.060839         1.954804
 H         4.195648        -0.178701         2.258668
 H         3.865189         2.886206         1.042728
 H         4.401592         2.257590        -0.544627
 H         1.623408         1.447375        -2.086459
 H         3.457950        -0.458921        -1.522496
