19
Iteration:    76charge 0 multiplicity 1
 C        -0.121932        -0.199542        -0.232638
 C         1.271373         0.420325        -0.009340
 C         1.969156         0.980703         1.280752
 C         3.390080         0.861712         0.637877
 O         4.371457         0.218558         1.435497
 C         3.712342         2.201811        -0.076863
 O         2.623462         2.303995        -0.996187
 C         2.118725         0.992069        -1.245217
 C         2.688339        -0.088683        -0.461315
 H        -0.453430        -0.946755         0.524238
 H        -0.922907         0.534484        -0.098888
 H        -0.137857        -0.590984        -1.266949
 H         1.600127         2.006502         1.701315
 H         1.967941         0.173840         2.066260
 H         4.065974        -0.728143         1.413947
 H         3.589376         3.043420         0.588308
 H         4.688514         2.245644        -0.637378
 H         1.722662         1.001257        -2.246168
 H         3.012487        -1.043740        -0.864281
