19
Iteration:  2477charge 0 multiplicity 1
 C         0.265525        -0.571926        -0.458567
 C         1.359670         0.397472        -0.169141
 C         1.797870         0.657568         1.266815
 C         3.260657         0.744132         0.757564
 O         4.395116         0.110803         1.281228
 C         3.339731         2.281875         0.328297
 O         2.586139         2.588726        -0.844970
 C         2.089584         1.322729        -1.214526
 C         2.896336         0.220293        -0.650403
 H         0.432965        -1.428828         0.105750
 H        -0.662149        -0.142819        -0.176642
 H         0.204036        -0.754951        -1.538463
 H         1.395204         1.423499         1.848618
 H         1.885423        -0.267767         1.826545
 H         3.981720        -0.690900         1.587386
 H         3.000698         2.971788         1.091176
 H         4.440252         2.470938         0.214525
 H         1.465068         1.244074        -2.156157
 H         3.429522        -0.553432        -1.178052
