19
Iteration:  2325charge 0 multiplicity 1
 C         0.092780        -0.533794        -0.291409
 C         1.365206         0.397700        -0.258244
 C         1.963194         0.490225         1.155314
 C         3.245221         0.807353         0.608801
 O         4.254810         0.318872         1.392376
 C         3.438768         2.262372         0.422699
 O         2.654620         2.573633        -0.791189
 C         2.139250         1.269525        -1.283905
 C         2.870965         0.175405        -0.738721
 H         0.198777        -1.552760         0.283293
 H        -0.943956        -0.092365        -0.029765
 H        -0.096057        -0.980960        -1.280231
 H         1.476539         1.148808         1.959943
 H         1.972321        -0.541217         1.636496
 H         4.065541        -0.656537         1.508094
 H         3.057201         2.707375         1.301289
 H         4.449718         2.523309         0.201574
 H         1.774970         1.396310        -2.278466
 H         3.494579        -0.558625        -1.370079
