19
Iteration:  2565charge 0 multiplicity 1
 C         0.080470        -0.413878        -0.491180
 C         1.404177         0.292346        -0.286003
 C         1.908722         0.565748         1.178405
 C         3.316186         0.817535         0.601324
 O         4.281264         0.316374         1.473232
 C         3.565323         2.260768         0.217719
 O         2.409555         2.528609        -0.561859
 C         2.050212         1.218890        -1.196623
 C         3.001566         0.089098        -0.723801
 H         0.105622        -1.365672         0.147368
 H        -0.823581         0.198532        -0.190108
 H        -0.139929        -0.818528        -1.530508
 H         1.653502         1.458086         1.735992
 H         1.904067        -0.355567         1.804365
 H         4.180139        -0.569547         1.809862
 H         3.647387         3.103538         0.893812
 H         4.526369         2.307110        -0.388233
 H         1.773042         1.290716        -2.279271
 H         3.575538        -0.644882        -1.244896
