19
Iteration:  3029
 C         0.223947        -0.544887        -0.639269
 C         1.371529         0.289680        -0.137863
 C         1.838111         0.715151         1.366527
 C         3.260612         0.920043         0.708552
 O         4.300618         0.140206         1.250121
 C         3.496112         2.356114         0.305592
 O         2.604860         2.542976        -0.777388
 C         2.035393         1.185927        -1.166698
 C         2.855590         0.119701        -0.629797
 H         0.342738        -1.597588        -0.266756
 H        -0.813070        -0.273719        -0.248782
 H         0.163852        -0.506312        -1.742480
 H         1.396636         1.524363         1.952497
 H         1.630485        -0.199955         2.024164
 H         4.027632        -0.107480         2.178824
 H         3.386685         3.102554         1.177564
 H         4.599793         2.336817         0.013627
 H         1.871660         1.142115        -2.242868
 H         3.312159        -0.765619        -1.168605
