19
Iteration:  1805
 C         0.061707        -0.391523        -0.468109
 C         1.396767         0.224240        -0.306902
 C         1.819706         0.496828         1.153519
 C         3.300222         0.784757         0.710724
 O         4.378394         0.360452         1.517291
 C         3.539441         2.261435         0.217444
 O         2.552104         2.549078        -0.754431
 C         2.022728         1.272793        -1.211551
 C         2.930977         0.102789        -0.589344
 H        -0.095880        -1.319056         0.110861
 H        -0.711203         0.299583        -0.080993
 H        -0.283362        -0.586399        -1.547628
 H         1.326495         1.299648         1.721883
 H         1.766227        -0.390946         1.826595
 H         4.475160        -0.615035         1.278541
 H         3.500440         2.895235         1.096610
 H         4.567169         2.326118        -0.272532
 H         1.611641         1.218760        -2.226449
 H         3.480870        -0.605085        -1.245104
