19
Iteration:  3821
 C         0.187799        -0.462254        -0.598870
 C         1.436064         0.287590        -0.338789
 C         1.813244         0.620939         1.079417
 C         3.353809         0.750986         0.680111
 O         4.342528         0.336688         1.610376
 C         3.502986         2.242694         0.294042
 O         2.459761         2.503461        -0.628369
 C         2.061876         1.299731        -1.191189
 C         2.885186         0.098169        -0.714703
 H         0.163145        -1.308587         0.056218
 H        -0.790842         0.140457        -0.542954
 H         0.082447        -0.763757        -1.656656
 H         1.440047         1.398702         1.714643
 H         1.850621        -0.353482         1.617841
 H         4.095288        -0.449495         2.072785
 H         3.471690         2.808899         1.229342
 H         4.522149         2.493308        -0.248057
 H         1.574147         1.309749        -2.178493
 H         3.245195        -0.682818        -1.357157
