19
Iteration:  1408charge 0 multiplicity 1
 C         0.086324        -0.397250        -0.574059
 C         1.369698         0.209039        -0.239662
 C         1.798680         0.670408         1.159911
 C         3.350121         0.837912         0.768315
 O         4.323993         0.174119         1.471009
 C         3.545900         2.214961         0.231611
 O         2.402759         2.473591        -0.636276
 C         2.143694         1.166504        -1.234332
 C         2.951357         0.187768        -0.679670
 H        -0.132598        -1.431469        -0.290868
 H        -0.629288         0.329093        -0.018877
 H        -0.154669        -0.226779        -1.603039
 H         1.209095         1.606835         1.558781
 H         1.712001        -0.087655         2.062849
 H         5.078902         0.793416         1.574467
 H         3.679986         3.047262         0.981532
 H         4.462178         2.190849        -0.476698
 H         1.896126         1.360620        -2.257620
 H         3.673859        -0.548062        -1.131809
