19
Iteration:   254charge 0 multiplicity 1
 C         0.035150        -0.207110        -0.264237
 C         1.350456         0.368752        -0.047670
 C         1.946706         0.791989         1.280879
 C         3.298423         0.802962         0.521269
 O         4.232240         0.343621         1.496021
 C         3.775536         1.940667        -0.174806
 O         2.661918         2.362215        -0.854209
 C         1.960218         1.195701        -1.134374
 C         2.721384        -0.037190        -0.549153
 H        -0.237546        -1.092861         0.280235
 H        -0.764466         0.579988        -0.217579
 H         0.010816        -0.417258        -1.342292
 H         1.400674         1.631295         1.827042
 H         1.938539         0.103916         2.124950
 H         4.683025         1.152886         1.901635
 H         4.107127         2.867238         0.326978
 H         4.572959         1.571179        -0.913984
 H         1.385201         1.143177        -1.994195
 H         2.923531        -1.028083        -0.912523
