19
Iteration:   670
 C        -0.070372        -0.344257        -0.364986
 C         1.278768         0.319565        -0.194601
 C         1.898461         0.792480         1.205908
 C         3.338312         0.770717         0.621167
 O         4.355366         0.422515         1.617534
 C         3.781569         2.121948        -0.060692
 O         2.552815         2.450451        -0.768527
 C         2.070280         1.104370        -1.187115
 C         2.783618        -0.027704        -0.673988
 H        -0.106197        -1.328464         0.027530
 H        -0.793667         0.325354         0.149185
 H        -0.503343        -0.404155        -1.371380
 H         1.662718         1.782853         1.736078
 H         1.932625        -0.058796         1.953123
 H         3.984935        -0.315808         2.166126
 H         4.191165         2.769465         0.678411
 H         4.696134         2.028471        -0.632527
 H         1.643053         1.236337        -2.116648
 H         3.176081        -0.762829        -1.387966
