19
Iteration:  4229
 C         0.130097        -0.678455        -0.565326
 C         1.382188         0.350368        -0.313892
 C         1.874574         0.559797         1.171700
 C         3.252813         0.850920         0.699946
 O         4.324866         0.119573         1.504663
 C         3.475813         2.412129         0.416920
 O         2.592320         2.623013        -0.724198
 C         2.107708         1.402247        -1.214469
 C         2.896951         0.124166        -0.699423
 H         0.278779        -1.717551        -0.170174
 H        -0.801802        -0.290860         0.002847
 H         0.034054        -0.941104        -1.647395
 H         1.428124         1.486742         1.665022
 H         1.755336        -0.450391         1.736680
 H         4.139099        -0.809489         1.143499
 H         3.029958         2.884742         1.268882
 H         4.470470         2.808415         0.134621
 H         1.610441         1.511148        -2.133146
 H         3.325318        -0.524456        -1.495495
