19
Iteration:  3109charge 0 multiplicity 1
 C         0.122407        -0.433527        -0.574967
 C         1.439211         0.223016        -0.229214
 C         1.859051         0.558638         1.186134
 C         3.325015         0.793216         0.658536
 O         4.277241         0.252008         1.553668
 C         3.623438         2.228914         0.166087
 O         2.405918         2.551127        -0.613191
 C         2.033741         1.247670        -1.134641
 C         2.917238         0.106790        -0.709452
 H        -0.201218        -1.301895        -0.043382
 H        -0.537109         0.510305        -0.420820
 H         0.045076        -0.655369        -1.735179
 H         1.412390         1.539935         1.597090
 H         1.592193        -0.363386         1.797005
 H         4.987665         0.816223         1.123553
 H         3.608539         2.980456         1.001470
 H         4.640756         2.273509        -0.399744
 H         1.510754         1.353580        -2.134133
 H         3.542843        -0.624722        -1.235903
