19
Iteration:  2774charge 0 multiplicity 1
 C         0.253472        -0.552092        -0.600797
 C         1.266792         0.469936        -0.145125
 C         1.815141         0.563798         1.330143
 C         3.236921         0.762871         0.697005
 O         4.477678         0.301178         1.451926
 C         3.531327         2.232647         0.272941
 O         2.669177         2.561410        -0.872225
 C         2.002313         1.252773        -1.214241
 C         2.653212         0.134376        -0.622108
 H         0.273356        -1.479519        -0.050631
 H        -0.703986        -0.083881        -0.568886
 H         0.471827        -0.795748        -1.613911
 H         1.461275         1.347054         1.979861
 H         1.743548        -0.329783         2.011932
 H         4.430452        -0.697363         1.313472
 H         3.311731         2.892267         1.160431
 H         4.550924         2.464127         0.098739
 H         1.352214         1.374924        -2.138211
 H         3.034137        -0.770506        -1.150332
