19
Iteration:  4895
 C         0.209881        -0.437001        -0.623484
 C         1.384790         0.338580        -0.268950
 C         1.783147         0.512750         1.140746
 C         3.261874         0.748891         0.698890
 O         4.350795         0.390707         1.434379
 C         3.481327         2.197172         0.404880
 O         2.546743         2.483364        -0.669430
 C         2.146730         1.291240        -1.201430
 C         2.837092         0.172278        -0.639313
 H         0.174826        -1.402307        -0.207016
 H        -0.746904         0.091959        -0.449744
 H         0.165678        -0.576092        -1.717183
 H         1.211294         1.258341         1.657967
 H         1.759336        -0.332033         1.882242
 H         4.379856        -0.528522         1.602543
 H         3.256670         2.871502         1.234097
 H         4.513430         2.202447        -0.003337
 H         1.811753         1.285286        -2.240287
 H         3.238076        -0.649901        -1.196902
