19
Iteration:  1014charge 0 multiplicity 1
 C         0.036074        -0.452813        -0.376676
 C         1.290718         0.379494        -0.151496
 C         1.892568         0.601823         1.297580
 C         3.226577         0.873055         0.648203
 O         4.275944         0.221691         1.465390
 C         3.503811         2.250592         0.306277
 O         2.773951         2.462060        -1.015939
 C         2.085683         1.229437        -1.222206
 C         2.793538         0.126627        -0.612580
 H         0.082386        -1.392067         0.198879
 H        -0.814544         0.241847        -0.244335
 H        -0.048907        -0.918960        -1.338090
 H         1.557945         1.338832         1.997518
 H         2.006245        -0.423960         1.653115
 H         5.126827         0.467525         0.981721
 H         3.370107         2.930558         1.148544
 H         4.535837         2.342455        -0.034972
 H         1.726879         1.338816        -2.246700
 H         3.090148        -0.879538        -1.046725
