19
Iteration:  4565charge 0 multiplicity 1
 C         0.210539        -0.524444        -0.795634
 C         1.385471         0.248761        -0.245225
 C         1.776312         0.518532         1.245035
 C         3.259901         0.777701         0.739556
 O         4.383242         0.258118         1.534873
 C         3.671131         2.270786         0.123853
 O         2.394703         2.592606        -0.608969
 C         2.041187         1.362866        -1.101092
 C         2.912144         0.188957        -0.583447
 H         0.142727        -1.612898        -0.554541
 H        -0.724371         0.102525        -0.526527
 H         0.131922        -0.352553        -1.842787
 H         1.099771         1.246241         1.665460
 H         1.631416        -0.381213         1.914899
 H         4.140935        -0.584921         2.039112
 H         3.950106         3.121506         0.751256
 H         4.410063         2.045285        -0.652366
 H         1.586031         1.253738        -2.094525
 H         3.484380        -0.475801        -1.163764
