19
Iteration:  3921
 C         0.277743        -0.601015        -0.733213
 C         1.340019         0.249143        -0.137683
 C         1.739445         0.586109         1.309304
 C         3.211377         0.853545         0.801524
 O         4.404277         0.255907         1.395150
 C         3.499129         2.354797         0.376855
 O         2.692020         2.513796        -0.883275
 C         2.029601         1.356742        -1.110856
 C         2.732390         0.169014        -0.661893
 H         0.228066        -1.622580        -0.418328
 H        -0.804023        -0.194862        -0.528627
 H         0.430110        -0.660407        -1.793061
 H         1.208254         1.401438         1.741929
 H         1.699050        -0.306265         1.941300
 H         4.454664        -0.745400         1.388994
 H         3.190853         3.070249         1.128982
 H         4.680822         2.497179         0.321041
 H         1.623237         1.493340        -2.091722
 H         3.176553        -0.776291        -1.075463
