19
Iteration:   954charge 0 multiplicity 1
 C         0.055091        -0.339077        -0.540067
 C         1.393356         0.254063        -0.153017
 C         1.807247         0.877971         1.210930
 C         3.364697         0.850988         0.659972
 O         4.370438         0.290691         1.430181
 C         3.684432         2.231372         0.046145
 O         2.429360         2.364048        -0.646256
 C         2.067706         1.120968        -1.145439
 C         2.868016        -0.013416        -0.578223
 H        -0.288408        -1.121979         0.120552
 H        -0.668298         0.450904        -0.295541
 H         0.031769        -0.506139        -1.669991
 H         1.445873         1.839189         1.604649
 H         1.655021         0.147834         2.024265
 H         4.036309        -0.539394         1.757813
 H         3.912204         2.968620         0.862636
 H         4.540491         2.111953        -0.692826
 H         1.641425         1.185006        -2.193479
 H         3.392040        -0.727972        -1.125359
