19
Iteration:  3288charge 0 multiplicity 1
 C         0.231846        -0.447184        -0.740928
 C         1.410618         0.275690        -0.185107
 C         1.846524         0.531929         1.247613
 C         3.280729         0.798312         0.734021
 O         4.461040         0.292900         1.415277
 C         3.558878         2.201858         0.217130
 O         2.421694         2.540072        -0.637522
 C         1.963434         1.300206        -1.116142
 C         2.792026         0.098235        -0.673485
 H         0.034361        -1.421411        -0.290109
 H        -0.639989         0.189697        -0.689243
 H         0.304229        -0.477763        -1.782986
 H         1.253710         1.330296         1.819894
 H         1.718937        -0.332277         1.876643
 H         4.228516         0.305630         2.396942
 H         3.726058         2.834474         1.005037
 H         4.523864         2.278398        -0.224919
 H         1.634858         1.398427        -2.166320
 H         3.462162        -0.459495        -1.249387
