19
Iteration:    97
 C        -0.205793        -0.203054        -0.329707
 C         1.241929         0.352470        -0.132592
 C         1.882590         1.020503         1.211815
 C         3.424483         0.780113         0.653026
 O         4.526179         0.250552         1.427542
 C         3.809454         2.099280        -0.128451
 O         2.550309         2.340128        -0.881494
 C         1.980157         1.034081        -1.168458
 C         2.756888        -0.050166        -0.377825
 H        -0.444973        -1.128330         0.288957
 H        -0.940041         0.436302         0.176269
 H        -0.400801        -0.328113        -1.424795
 H         1.632728         2.153794         1.383148
 H         1.654567         0.388857         2.108166
 H         4.255919        -0.025244         2.318250
 H         4.073628         2.913925         0.537681
 H         4.608169         1.778902        -0.876831
 H         1.836563         0.943044        -2.195824
 H         3.211260        -0.908328        -0.857410
