19
Iteration:  1688charge 0 multiplicity 1
 C         0.073433        -0.502050        -0.568623
 C         1.384047         0.221912        -0.323098
 C         1.919651         0.691995         1.098611
 C         3.346391         0.741373         0.636366
 O         4.296091         0.251546         1.680650
 C         3.640382         2.193499         0.176695
 O         2.402721         2.492345        -0.526791
 C         2.021050         1.361275        -1.218639
 C         2.868478         0.112868        -0.767083
 H         0.013449        -1.315572         0.146751
 H        -0.757375         0.096321        -0.366778
 H         0.055163        -0.898601        -1.536528
 H         1.464820         1.522779         1.708537
 H         1.861112        -0.021185         1.905239
 H         5.102538         0.853581         1.591555
 H         3.839499         2.960405         0.918130
 H         4.524008         2.096183        -0.511041
 H         1.710369         1.608026        -2.268416
 H         3.334267        -0.578661        -1.513088
