19
Iteration:  3071
 C         0.153091        -0.615894        -0.451442
 C         1.340265         0.410033        -0.282377
 C         1.804054         0.613027         1.189477
 C         3.242185         0.664486         0.680668
 O         4.334001         0.153428         1.417030
 C         3.505796         2.353481         0.342599
 O         2.655806         2.608866        -0.765193
 C         2.049468         1.266861        -1.265166
 C         2.878405         0.171648        -0.663942
 H         0.055426        -1.423535         0.337047
 H        -0.729447        -0.113609        -0.169913
 H         0.072356        -0.939644        -1.422766
 H         1.557932         1.436083         1.791690
 H         1.711579        -0.316535         1.712295
 H         4.821846         0.745986         2.051163
 H         3.053529         2.914581         1.194888
 H         4.485168         2.665271         0.037374
 H         1.686606         1.231735        -2.284210
 H         3.152299        -0.678850        -1.348242
