19
Iteration:    57charge 0 multiplicity 1
 C         0.106873        -0.164354        -0.127774
 C         1.382187         0.442474        -0.020913
 C         1.882911         0.938359         1.320325
 C         3.219745         0.746704         0.644932
 O         4.284165         0.261408         1.431689
 C         3.636523         2.065991         0.009868
 O         2.753522         2.314056        -1.167199
 C         1.942433         1.112676        -1.161491
 C         2.743780        -0.027355        -0.570346
 H        -0.090338        -0.706737         0.783625
 H        -0.688810         0.617189        -0.163041
 H         0.026178        -0.796972        -0.992817
 H         1.617350         1.958376         1.574244
 H         1.635538         0.182079         2.064203
 H         4.643385        -0.572518         1.068274
 H         3.483834         2.936622         0.667056
 H         4.651328         2.010481        -0.334332
 H         1.373735         0.831096        -2.169123
 H         3.155890        -0.961689        -0.941926
