19
Iteration:  1956charge 0 multiplicity 1
 C         0.069730        -0.387734        -0.587446
 C         1.422145         0.215920        -0.211098
 C         1.832508         0.650999         1.201873
 C         3.357596         0.833801         0.696379
 O         4.367315         0.298954         1.425293
 C         3.541787         2.319328         0.228771
 O         2.385573         2.466655        -0.621498
 C         2.139836         1.165713        -1.161156
 C         2.956022         0.085138        -0.688158
 H        -0.084136        -1.462466        -0.334708
 H        -0.520896         0.181368         0.201335
 H        -0.337925        -0.281093        -1.586908
 H         1.169081         1.513051         1.502930
 H         1.866414        -0.130992         1.953775
 H         4.289428        -0.667479         1.265407
 H         3.667763         3.118697         1.028171
 H         4.458867         2.410733        -0.480289
 H         1.594939         1.310367        -2.108233
 H         3.397197        -0.755934        -1.112343
