19
Iteration:  2978charge 0 multiplicity 1
 C         0.104559        -0.465838        -0.527220
 C         1.348074         0.209160        -0.293066
 C         1.852674         0.568784         1.118362
 C         3.333068         0.768726         0.628569
 O         4.265231         0.453964         1.522371
 C         3.666603         2.184659         0.164726
 O         2.485578         2.504311        -0.535223
 C         2.133425         1.305626        -1.143270
 C         2.838132         0.078111        -0.761590
 H         0.038440        -1.326451         0.055926
 H        -0.809846         0.001339        -0.100627
 H        -0.004155        -0.655868        -1.643898
 H         1.431857         1.468336         1.669757
 H         1.825290        -0.164646         1.918984
 H         4.182354        -0.385983         1.996254
 H         3.789575         2.731047         1.043729
 H         4.520965         2.150058        -0.499724
 H         1.610080         1.552106        -2.053664
 H         3.462629        -0.404349        -1.480725
