19
Iteration:  4728
 C         0.028292        -0.468240        -0.669381
 C         1.415234         0.155731        -0.392036
 C         1.786847         0.559489         1.090867
 C         3.310527         0.849880         0.675465
 O         4.417907         0.264868         1.555504
 C         3.591722         2.290779         0.297466
 O         2.404251         2.559984        -0.566170
 C         2.116481         1.336529        -1.138702
 C         2.917966         0.082237        -0.639474
 H         0.057039        -1.472493        -0.122837
 H        -0.663792         0.256304        -0.298605
 H        -0.297115        -0.577778        -1.659246
 H         1.184964         1.409907         1.481749
 H         1.899788        -0.208603         1.909688
 H         4.045435        -0.584394         1.682221
 H         3.649273         2.985275         1.178140
 H         4.534070         2.392288        -0.351925
 H         2.049125         1.345511        -2.195179
 H         3.760260        -0.335495        -1.201862
