19
Iteration:  3504charge 0 multiplicity 1
 C         0.183534        -0.597222        -0.669353
 C         1.317978         0.319098        -0.250317
 C         1.821622         0.600771         1.214325
 C         3.274996         0.810829         0.667276
 O         4.430229         0.150340         1.343956
 C         3.425379         2.294646         0.400971
 O         2.528613         2.600493        -0.710816
 C         2.061780         1.314046        -1.135916
 C         2.880468         0.173308        -0.644017
 H         0.228760        -1.463069        -0.098028
 H        -0.801952        -0.020371        -0.564813
 H         0.516784        -0.965636        -1.659051
 H         1.281107         1.349317         1.835157
 H         1.902142        -0.329981         1.790730
 H         4.552910         0.525871         2.203413
 H         3.101927         2.806871         1.332169
 H         4.579058         2.483884         0.259547
 H         1.666051         1.352729        -2.151954
 H         3.421473        -0.653831        -1.146073
