19
Iteration:  3539charge 0 multiplicity 1
 C         0.245382        -0.484788        -0.772133
 C         1.398458         0.243364        -0.242979
 C         1.861522         0.569440         1.252012
 C         3.223368         0.827171         0.699471
 O         4.409755         0.323090         1.407752
 C         3.553789         2.170493         0.220029
 O         2.429751         2.580318        -0.561648
 C         2.031554         1.298377        -1.091621
 C         2.840081         0.094685        -0.654369
 H         0.233400        -1.515650        -0.430384
 H        -0.800544        -0.102356        -0.486821
 H         0.163769        -0.417644        -1.855088
 H         1.263293         1.325432         1.755505
 H         1.903968        -0.334899         1.792596
 H         4.082729         0.296917         2.291578
 H         3.760328         2.814768         1.155417
 H         4.478317         2.157720        -0.480486
 H         1.611442         1.459389        -2.055181
 H         3.400861        -0.675492        -1.210282
