19
Iteration:  2162
 C         0.126648        -0.502526        -0.526141
 C         1.405220         0.267720        -0.196819
 C         1.826138         0.635909         1.212402
 C         3.321492         0.799525         0.660352
 O         4.436547         0.229008         1.308953
 C         3.486233         2.276350         0.345020
 O         2.547095         2.554894        -0.730301
 C         2.043991         1.283489        -1.165268
 C         2.866599         0.113019        -0.657795
 H         0.152525        -1.555539        -0.087321
 H        -0.711784         0.074953        -0.019360
 H        -0.009411        -0.526301        -1.567377
 H         1.223461         1.507111         1.590359
 H         1.640682        -0.156598         1.946199
 H         4.034006        -0.268656         2.017893
 H         2.973350         2.677484         1.223593
 H         4.522595         2.709185         0.006426
 H         1.570732         1.265448        -2.184524
 H         3.340949        -0.665876        -1.317819
