19
Iteration:  4652
 C         0.201385        -0.544945        -0.630313
 C         1.388766         0.285013        -0.227934
 C         1.804480         0.511333         1.323441
 C         3.218704         0.865074         0.751591
 O         4.305019         0.237983         1.325991
 C         3.411348         2.330920         0.382262
 O         2.695044         2.524620        -0.738618
 C         2.083399         1.314631        -1.213509
 C         2.874345         0.223761        -0.657200
 H         0.170764        -1.572589        -0.065538
 H        -0.764265         0.060869        -0.630408
 H         0.308117        -0.792957        -1.667408
 H         1.087534         1.175697         1.805084
 H         1.864513        -0.532598         1.796548
 H         4.043089        -0.721179         1.486725
 H         3.184603         3.055373         1.180207
 H         4.524216         2.479897         0.318632
 H         1.859123         1.497971        -2.217558
 H         3.317606        -0.589378        -1.210984
