19
Iteration:  1766charge 0 multiplicity 1
 C         0.191905        -0.512198        -0.569709
 C         1.322776         0.421967        -0.146604
 C         1.861731         0.555389         1.243363
 C         3.291516         0.758747         0.692617
 O         4.463911         0.312754         1.419476
 C         3.402140         2.267310         0.368515
 O         2.765509         2.502729        -0.911933
 C         1.966367         1.281336        -1.183664
 C         2.682453         0.110009        -0.637993
 H         0.281303        -1.478147        -0.057427
 H        -0.622230        -0.005848        -0.121510
 H         0.158618        -0.686878        -1.595203
 H         1.428182         1.379277         1.837568
 H         1.744636        -0.439189         1.643629
 H         4.339920        -0.545004         1.820235
 H         2.758727         2.897318         0.981650
 H         4.436044         2.562944         0.322930
 H         1.525477         1.504795        -2.138409
 H         3.044315        -0.737465        -1.086016
