19
Iteration:  2239
 C         0.141744        -0.522633        -0.731559
 C         1.318705         0.269211        -0.153006
 C         1.808150         0.663708         1.266173
 C         3.313534         0.762384         0.666799
 O         4.512128         0.331317         1.481388
 C         3.595103         2.168975         0.114204
 O         2.459088         2.550728        -0.623222
 C         1.908821         1.329469        -1.047611
 C         2.877838         0.138374        -0.666204
 H         0.158625        -1.545321        -0.273764
 H        -0.774831         0.069981        -0.511819
 H         0.357842        -0.702095        -1.711056
 H         1.296793         1.582373         1.666921
 H         1.676605        -0.069172         2.058907
 H         4.506108        -0.620975         1.606169
 H         3.822285         2.854669         0.908999
 H         4.425025         2.181134        -0.606378
 H         1.547665         1.259172        -2.037272
 H         3.257909        -0.743811        -1.272743
