19
Iteration:  2954
 C         0.074582        -0.458940        -0.514710
 C         1.393367         0.208467        -0.331231
 C         1.853807         0.606442         1.137524
 C         3.324498         0.816304         0.726859
 O         4.356418         0.278882         1.559182
 C         3.626386         2.250473         0.290224
 O         2.449288         2.582034        -0.697285
 C         2.012923         1.297464        -1.220153
 C         2.905856         0.096662        -0.720004
 H        -0.032869        -1.164103         0.251091
 H        -0.784683         0.200656        -0.191719
 H        -0.150596        -0.873519        -1.525981
 H         1.195875         1.316654         1.707810
 H         2.000497        -0.214988         1.883579
 H         4.512209        -0.640105         1.381622
 H         3.554180         3.032173         1.041538
 H         4.568835         2.187149        -0.236564
 H         1.754737         1.304121        -2.295618
 H         3.571865        -0.634669        -1.290294
