19
Iteration:  4770charge 0 multiplicity 1
 C         0.334942        -0.553874        -0.660457
 C         1.423012         0.361697        -0.200963
 C         1.832024         0.627549         1.239907
 C         3.253558         0.732027         0.682732
 O         4.243400         0.233510         1.402330
 C         3.473417         2.264054         0.366230
 O         2.604569         2.624326        -0.725662
 C         2.079948         1.311084        -1.186632
 C         2.751394         0.119494        -0.637923
 H         0.625285        -1.550090        -0.154030
 H        -0.620893        -0.315785        -0.266971
 H         0.207752        -0.814437        -1.691463
 H         1.431732         1.502674         1.814530
 H         1.725119        -0.349360         1.643976
 H         4.031137        -0.701130         1.548475
 H         3.272557         2.870338         1.287606
 H         4.528708         2.495055         0.202315
 H         1.601015         1.374206        -2.121258
 H         3.230630        -0.487336        -1.390451
