19
Iteration:  1404
 C         0.072795        -0.372480        -0.575424
 C         1.384871         0.202281        -0.225728
 C         1.764335         0.691116         1.135124
 C         3.354477         0.814427         0.770780
 O         4.354195         0.151732         1.472334
 C         3.525019         2.233697         0.197911
 O         2.387865         2.467928        -0.617695
 C         2.126686         1.142424        -1.204395
 C         2.979828         0.187048        -0.657432
 H        -0.080963        -1.434117        -0.312445
 H        -0.657408         0.342030        -0.155021
 H        -0.078403        -0.120032        -1.638221
 H         1.309335         1.542922         1.551136
 H         1.763803         0.043395         1.926553
 H         5.086344         0.764878         1.736396
 H         3.653667         3.109779         0.851299
 H         4.341299         2.239975        -0.555331
 H         1.966589         1.388736        -2.254423
 H         3.698341        -0.507516        -1.171125
