19
Iteration:  3291
 C         0.252873        -0.433576        -0.714821
 C         1.385856         0.265136        -0.209531
 C         1.873589         0.525987         1.238211
 C         3.274549         0.784377         0.752884
 O         4.447897         0.279189         1.419150
 C         3.519983         2.192205         0.211632
 O         2.449631         2.559740        -0.638735
 C         1.975059         1.299685        -1.114177
 C         2.779626         0.124969        -0.684004
 H         0.028828        -1.470182        -0.246146
 H        -0.596751         0.205341        -0.648610
 H         0.322786        -0.552654        -1.803933
 H         1.247795         1.291877         1.773626
 H         1.820141        -0.368331         1.946499
 H         4.228667         0.416244         2.327390
 H         3.611871         2.967706         1.040669
 H         4.524510         2.256063        -0.282924
 H         1.644283         1.350002        -2.168334
 H         3.448088        -0.541505        -1.250231
