19
Iteration:  2687
 C         0.056208        -0.357155        -0.478550
 C         1.432417         0.198986        -0.305413
 C         1.880109         0.717856         1.123996
 C         3.374905         0.829002         0.614944
 O         4.349992         0.306415         1.530493
 C         3.556093         2.261495         0.185806
 O         2.336933         2.445703        -0.565090
 C         2.130613         1.226471        -1.168877
 C         2.990636         0.016138        -0.706239
 H        -0.139180        -1.413449        -0.219675
 H        -0.810848         0.301207        -0.040451
 H        -0.179045        -0.294117        -1.547431
 H         1.303459         1.569534         1.314073
 H         1.727569        -0.120693         1.822550
 H         4.242029        -0.621414         1.825055
 H         3.556254         2.973029         1.058198
 H         4.395825         2.447819        -0.468841
 H         1.718269         1.311785        -2.166844
 H         3.525664        -0.818022        -1.268676
