19
Iteration:  4607
 C         0.171955        -0.620536        -0.616080
 C         1.369670         0.319396        -0.285344
 C         1.813137         0.709621         1.070556
 C         3.345398         0.793493         0.650313
 O         4.325835         0.253116         1.522747
 C         3.542423         2.248872         0.389854
 O         2.487650         2.498639        -0.562263
 C         2.106098         1.335098        -1.253982
 C         2.844983         0.162611        -0.737817
 H         0.437280        -1.712095        -0.264391
 H        -0.664883        -0.161256        -0.072882
 H        -0.185895        -0.585401        -1.632726
 H         1.655510         1.622109         1.688810
 H         1.651602        -0.184918         1.721346
 H         4.134540        -0.691383         1.710543
 H         3.370820         2.921704         1.266306
 H         4.526072         2.674067         0.048050
 H         1.826206         1.485755        -2.329303
 H         3.288527        -0.691601        -1.175771
