19
Iteration:  4750charge 0 multiplicity 1
 C         0.208090        -0.494492        -0.587445
 C         1.427994         0.368374        -0.237808
 C         1.830965         0.611167         1.148259
 C         3.307312         0.730662         0.706586
 O         4.276228         0.227974         1.534391
 C         3.479364         2.254438         0.332357
 O         2.477304         2.528928        -0.631202
 C         2.031424         1.296755        -1.231329
 C         2.994501         0.191727        -0.793291
 H         0.257684        -1.589004        -0.264460
 H        -0.696086         0.016807        -0.347763
 H         0.060681        -0.473633        -1.632438
 H         1.442562         1.506849         1.663280
 H         1.814457        -0.247941         1.865708
 H         4.096949        -0.772306         1.553244
 H         3.310069         2.988825         1.163612
 H         4.521027         2.493005        -0.080106
 H         1.698954         1.277148        -2.255719
 H         3.460556        -0.724550        -1.223804
