19
Iteration:  1739charge 0 multiplicity 1
 C         0.158996        -0.502706        -0.617326
 C         1.343514         0.358388        -0.120472
 C         1.830928         0.607645         1.343821
 C         3.274299         0.817064         0.733082
 O         4.366237         0.179978         1.236483
 C         3.434891         2.354695         0.319455
 O         2.645462         2.505707        -0.829886
 C         2.100285         1.192289        -1.208610
 C         2.822085         0.151020        -0.560521
 H         0.130998        -1.558854        -0.159238
 H        -0.789917        -0.000109        -0.216481
 H         0.244345        -0.583424        -1.821811
 H         1.376803         1.500268         1.842915
 H         1.611628        -0.220748         2.074964
 H         4.420336         0.125353         2.180324
 H         2.928643         3.019889         1.042781
 H         4.562288         2.584051         0.193152
 H         1.785480         1.273677        -2.277200
 H         3.347672        -0.769965        -1.114132
