19
Iteration:  2133charge 0 multiplicity 1
 C         0.104421        -0.477981        -0.693734
 C         1.372073         0.302704        -0.136642
 C         1.912813         0.532954         1.304642
 C         3.312788         0.808415         0.736475
 O         4.427884         0.373420         1.407794
 C         3.620064         2.176016         0.104230
 O         2.449287         2.531283        -0.631830
 C         1.999103         1.265352        -1.148715
 C         2.813666         0.151443        -0.638347
 H         0.133995        -1.549148        -0.573078
 H        -0.870091        -0.135680        -0.368858
 H         0.111871        -0.061801        -1.730731
 H         1.364173         1.205510         1.959463
 H         1.965228        -0.455716         1.805534
 H         3.944095        -0.108416         2.093799
 H         3.683183         2.889363         0.939551
 H         4.505440         2.139360        -0.487170
 H         1.669264         1.271945        -2.159961
 H         3.221633        -0.686342        -1.288478
