19
Iteration:    54
 C         0.119604        -0.188897        -0.115152
 C         1.385320         0.430982        -0.024712
 C         1.872077         0.943936         1.316550
 C         3.215113         0.747537         0.675013
 O         4.294210         0.261611         1.448437
 C         3.620646         2.033657         0.014049
 O         2.783343         2.322079        -1.192428
 C         1.932112         1.136989        -1.176168
 C         2.725186        -0.017629        -0.590237
 H        -0.157133        -0.609792         0.896362
 H        -0.657231         0.576526        -0.064673
 H         0.026137        -0.848662        -0.997569
 H         1.534106         2.041452         1.626001
 H         1.632035         0.103037         2.031230
 H         4.696425        -0.455917         0.956562
 H         3.397039         2.878125         0.627756
 H         4.688678         1.964392        -0.327819
 H         1.436329         0.978206        -2.084091
 H         3.107888        -0.927307        -1.029488
