19
Iteration:  3986charge 0 multiplicity 1
 C         0.139441        -0.462912        -0.593949
 C         1.463722         0.185509        -0.358076
 C         1.799070         0.709169         1.029919
 C         3.290665         0.699182         0.670432
 O         4.377632         0.331535         1.562025
 C         3.595394         2.176941         0.308458
 O         2.333341         2.519333        -0.501822
 C         2.083566         1.286369        -1.176708
 C         2.979283         0.102461        -0.763515
 H         0.032112        -1.316249         0.027949
 H        -0.695398         0.310526        -0.336159
 H        -0.104603        -0.620794        -1.619810
 H         1.401618         1.681755         1.221241
 H         1.586731         0.017263         1.885894
 H         3.996325        -0.193079         2.292929
 H         3.566135         2.970285         1.058835
 H         4.502645         2.479341        -0.307461
 H         1.835876         1.226150        -2.208554
 H         3.669077        -0.450578        -1.434939
