19
Iteration:  1483charge 0 multiplicity 1
 C         0.250153        -0.511783        -0.573607
 C         1.331067         0.330259        -0.125047
 C         1.727047         0.605384         1.271614
 C         3.270808         0.800348         0.703107
 O         4.255278         0.189213         1.354177
 C         3.521129         2.325390         0.384428
 O         2.654966         2.553408        -0.884030
 C         2.115145         1.241343        -1.159163
 C         2.800124         0.170094        -0.591132
 H         0.194230        -1.419066         0.093735
 H        -0.825827        -0.154427        -0.437541
 H         0.589003        -0.885627        -1.499011
 H         1.358068         1.428668         1.814278
 H         1.918831        -0.239535         1.890853
 H         4.781657        -0.246365         0.659480
 H         3.129067         3.136359         1.034565
 H         4.585100         2.606787         0.206395
 H         1.665565         1.135572        -2.123810
 H         3.231571        -0.689148        -1.149920
