19
Iteration:  2072charge 0 multiplicity 1
 C         0.178433        -0.540607        -0.424512
 C         1.404874         0.301456        -0.256671
 C         1.839096         0.717215         1.152536
 C         3.324902         0.819982         0.657125
 O         4.312701         0.174238         1.346005
 C         3.508121         2.313810         0.322123
 O         2.514975         2.557487        -0.658170
 C         2.004332         1.276818        -1.153007
 C         2.911600         0.098866        -0.704753
 H         0.209595        -1.521094         0.114552
 H        -0.756154        -0.030258        -0.171584
 H         0.144215        -0.952083        -1.429143
 H         1.375999         1.650440         1.517779
 H         1.636023        -0.116856         1.866266
 H         4.362680        -0.765144         1.232839
 H         3.307436         2.914185         1.254300
 H         4.563993         2.599198        -0.070633
 H         1.779466         1.345820        -2.199936
 H         3.457082        -0.593851        -1.299187
