19
Iteration:  1737charge 0 multiplicity 1
 C         0.177596        -0.503508        -0.622808
 C         1.340250         0.343799        -0.120536
 C         1.845193         0.609042         1.324507
 C         3.282065         0.826433         0.745062
 O         4.340464         0.177480         1.228417
 C         3.446974         2.362836         0.303510
 O         2.628874         2.499758        -0.809493
 C         2.110796         1.196730        -1.212394
 C         2.820809         0.141175        -0.566807
 H         0.074031        -1.504242        -0.149667
 H        -0.757665         0.047422        -0.202459
 H         0.171965        -0.573495        -1.788394
 H         1.350907         1.495312         1.886100
 H         1.602375        -0.196643         2.076452
 H         4.457027         0.211117         2.163081
 H         2.971190         3.060431         1.100098
 H         4.570679         2.527392         0.224375
 H         1.780234         1.219380        -2.260569
 H         3.370646        -0.759964        -1.035931
