19
Iteration:   509
 C         0.091822        -0.263144        -0.370879
 C         1.385526         0.298752        -0.037010
 C         1.918739         0.964557         1.236607
 C         3.357840         0.825109         0.652688
 O         4.274724         0.132647         1.567973
 C         3.632482         2.145922        -0.053639
 O         2.537999         2.366443        -0.899482
 C         1.997375         1.111756        -1.208877
 C         2.776260         0.020570        -0.571234
 H         0.032297        -1.300168         0.061036
 H        -0.677424         0.439099         0.140945
 H        -0.222214        -0.186636        -1.415359
 H         1.471610         1.947604         1.344913
 H         1.734300         0.465488         2.203801
 H         5.210814         0.210098         1.291732
 H         3.763803         3.041795         0.561526
 H         4.536612         2.019455        -0.583003
 H         1.486045         1.124841        -2.180967
 H         3.116659        -0.920574        -0.955481
