19
Iteration:  3411charge 0 multiplicity 1
 C         0.248414        -0.533026        -0.788046
 C         1.400375         0.235651        -0.177745
 C         1.793602         0.557541         1.206080
 C         3.261849         0.750704         0.729794
 O         4.373001         0.359584         1.423670
 C         3.608692         2.153904         0.188871
 O         2.427935         2.570405        -0.557790
 C         1.979026         1.390096        -1.038394
 C         2.872644         0.153946        -0.679002
 H         0.268845        -1.698259        -0.697143
 H        -0.640802        -0.147927        -0.377895
 H         0.285297        -0.409277        -1.862518
 H         1.427517         1.499911         1.732485
 H         1.890792        -0.282204         1.975198
 H         4.010668        -0.121211         2.243541
 H         3.718492         3.051713         0.806964
 H         4.547494         2.011835        -0.542969
 H         1.771667         1.389590        -2.082950
 H         3.305324        -0.589625        -1.402946
