19
Iteration:  3142
 C         0.157208        -0.436586        -0.732615
 C         1.382153         0.296344        -0.185960
 C         1.897926         0.651786         1.244344
 C         3.315704         0.841865         0.700655
 O         4.388113         0.296828         1.464896
 C         3.587384         2.281631         0.206502
 O         2.383725         2.481557        -0.623199
 C         2.052584         1.179974        -1.100466
 C         2.831405         0.039698        -0.608291
 H        -0.111214        -1.381556        -0.331160
 H        -0.727278         0.189157        -0.353221
 H         0.273697        -0.406977        -1.881363
 H         1.493317         1.611443         1.742065
 H         1.707786        -0.275717         1.847915
 H         4.599571        -0.623341         1.070341
 H         3.411571         3.030141         0.983215
 H         4.507334         2.500974        -0.388238
 H         1.809304         1.341848        -2.172001
 H         3.370963        -0.613476        -1.326297
