19
Iteration:  2961
 C         0.044280        -0.490602        -0.508708
 C         1.424125         0.219078        -0.305428
 C         1.853924         0.602187         1.106555
 C         3.310868         0.773535         0.635482
 O         4.316684         0.362197         1.567118
 C         3.654465         2.210831         0.246961
 O         2.490507         2.609761        -0.612099
 C         1.970526         1.272448        -1.188259
 C         2.945099         0.094667        -0.721228
 H        -0.116583        -1.384381         0.282563
 H        -0.711044         0.284732        -0.252144
 H        -0.192107        -0.756294        -1.508064
 H         1.190092         1.311651         1.608350
 H         1.864750        -0.358626         1.756435
 H         4.340979        -0.579851         1.399037
 H         3.670450         3.061759         1.049696
 H         4.654509         2.269250        -0.286267
 H         1.875369         1.215285        -2.277169
 H         3.448614        -0.707343        -1.296169
