19
Iteration:  2058
 C         0.220604        -0.579419        -0.394579
 C         1.403620         0.284019        -0.204681
 C         1.802406         0.681665         1.138619
 C         3.287496         0.808995         0.696375
 O         4.437265         0.051708         1.371848
 C         3.449445         2.317519         0.382395
 O         2.468896         2.584810        -0.783784
 C         2.149734         1.324257        -1.246593
 C         2.825800         0.238140        -0.661974
 H         0.250479        -1.245919         0.442205
 H        -0.605008         0.097950        -0.249218
 H         0.009051        -1.014508        -1.517329
 H         1.358380         1.628236         1.501789
 H         1.709215        -0.123541         1.960941
 H         3.893696        -0.750287         1.167960
 H         3.141329         3.071869         1.155254
 H         4.570601         2.596763         0.075520
 H         1.611509         1.287721        -2.163627
 H         3.279581        -0.550956        -1.365397
