19
Iteration:  1392charge 0 multiplicity 1
 C         0.059696        -0.298713        -0.643723
 C         1.467714         0.220771        -0.256557
 C         1.814092         0.724064         1.167084
 C         3.318522         0.812023         0.689850
 O         4.411581         0.106439         1.474679
 C         3.544222         2.314355         0.110664
 O         2.315802         2.462787        -0.588911
 C         2.056242         1.203090        -1.117923
 C         3.029351         0.052556        -0.547827
 H        -0.108868        -1.358182        -0.351772
 H        -0.757393         0.206035        -0.178680
 H        -0.019673        -0.389985        -1.764978
 H         1.343988         1.625202         1.399110
 H         1.623062        -0.084808         1.765975
 H         4.739187         0.750544         2.083762
 H         3.564804         3.103761         0.858784
 H         4.467716         2.305236        -0.474111
 H         1.793399         0.993828        -2.175550
 H         3.614253        -0.525716        -1.209940
