19
Iteration:  2286
 C         0.116216        -0.497013        -0.592022
 C         1.343796         0.246805        -0.154290
 C         1.876646         0.668997         1.193802
 C         3.342676         0.793799         0.687355
 O         4.438207         0.235029         1.397937
 C         3.554552         2.250738         0.262220
 O         2.423098         2.553655        -0.685422
 C         2.030641         1.269839        -1.183980
 C         2.867660         0.131659        -0.655272
 H         0.079876        -1.509914        -0.237334
 H        -0.693097         0.109703        -0.250938
 H         0.197890        -0.541135        -1.693637
 H         1.482787         1.562847         1.707068
 H         1.687324        -0.152273         1.902219
 H         4.087242        -0.401024         2.034346
 H         3.540896         3.027466         1.093571
 H         4.588681         2.340994        -0.218417
 H         1.603074         1.163071        -2.212768
 H         3.438631        -0.511194        -1.283201
