19
Iteration:  2808charge 0 multiplicity 1
 C         0.129550        -0.500817        -0.536613
 C         1.354106         0.259896        -0.211990
 C         1.768797         0.708537         1.174796
 C         3.304715         0.865096         0.720681
 O         4.354480         0.247330         1.388374
 C         3.617186         2.257438         0.268379
 O         2.467122         2.526716        -0.655643
 C         2.118922         1.202187        -1.234768
 C         2.927057         0.099258        -0.644503
 H        -0.004453        -1.428614        -0.077971
 H        -0.586880         0.151665         0.001681
 H        -0.210194        -0.537705        -1.526299
 H         1.349999         1.654477         1.422023
 H         1.747725        -0.037434         2.007621
 H         4.122494        -0.730561         1.391720
 H         3.463118         2.877762         1.205541
 H         4.492005         2.405571        -0.275109
 H         1.576979         1.139629        -2.212405
 H         3.642380        -0.492923        -1.156640
