19
Iteration:  2969
 C         0.040712        -0.498364        -0.481431
 C         1.416788         0.220571        -0.268145
 C         1.831628         0.556572         1.090757
 C         3.320421         0.780903         0.567791
 O         4.264062         0.432245         1.548113
 C         3.641234         2.201506         0.169422
 O         2.535429         2.576839        -0.533944
 C         2.040178         1.249522        -1.145276
 C         2.922345         0.112329        -0.710837
 H        -0.092419        -1.488498         0.005118
 H        -0.626666         0.295514        -0.266341
 H        -0.118866        -0.764883        -1.544273
 H         1.432385         1.474376         1.521775
 H         1.680074        -0.361010         1.569864
 H         4.283125        -0.538056         1.649069
 H         3.763412         2.746155         1.093325
 H         4.574702         2.311321        -0.421438
 H         1.784079         1.371647        -2.195391
 H         3.348047        -0.575415        -1.360838
