19
Iteration:   508
 C         0.094392        -0.269502        -0.366483
 C         1.372729         0.304937        -0.037140
 C         1.917200         0.966027         1.244123
 C         3.357945         0.822237         0.652753
 O         4.275536         0.133104         1.561035
 C         3.641077         2.151802        -0.050841
 O         2.538663         2.367825        -0.904575
 C         2.005716         1.108239        -1.207219
 C         2.776179         0.015167        -0.572533
 H         0.023499        -1.301101         0.032843
 H        -0.686736         0.431240         0.138443
 H        -0.235417        -0.194835        -1.411447
 H         1.468716         1.944197         1.354840
 H         1.728578         0.437739         2.188072
 H         5.208891         0.224488         1.350823
 H         3.762095         3.053857         0.535495
 H         4.554271         2.047697        -0.544717
 H         1.459102         1.147705        -2.197961
 H         3.084184        -0.924176        -0.965086
