19
Iteration:  2616charge 0 multiplicity 1
 C         0.234284        -0.621045        -0.519114
 C         1.294382         0.429025        -0.109554
 C         1.782749         0.678541         1.328154
 C         3.256205         0.830165         0.679116
 O         4.337102         0.246182         1.214140
 C         3.456816         2.227330         0.364814
 O         2.682082         2.506219        -0.803519
 C         2.164690         1.314930        -1.192245
 C         2.731247         0.139847        -0.639046
 H         0.357537        -1.548706         0.068342
 H        -0.763649        -0.416482        -0.588652
 H         0.527919        -0.877003        -1.571492
 H         1.572438         1.603302         1.925906
 H         1.770994        -0.290965         1.816007
 H         4.192553        -0.522803         1.816399
 H         3.141508         2.926795         1.116274
 H         4.445029         2.550948         0.145555
 H         1.624749         1.335005        -2.184154
 H         3.162152        -0.692035        -1.133217
