19
Iteration:  3668charge 0 multiplicity 1
 C         0.282300        -0.369002        -0.762893
 C         1.417150         0.257388        -0.181629
 C         1.879439         0.582729         1.251752
 C         3.351379         0.766393         0.635126
 O         4.355731         0.317525         1.454266
 C         3.511991         2.240617         0.335220
 O         2.449941         2.512592        -0.656074
 C         1.980580         1.225586        -1.170068
 C         2.829064         0.137206        -0.652663
 H         0.183623        -1.360440        -0.379702
 H        -0.742085         0.115017        -0.588232
 H         0.508282        -0.751517        -1.776456
 H         1.242137         1.483840         1.667293
 H         1.749584        -0.324320         1.939360
 H         4.063068        -0.346532         2.143635
 H         3.291718         2.965732         1.049510
 H         4.472936         2.389281        -0.126031
 H         1.476649         1.319252        -2.122893
 H         3.223931        -0.774600        -1.098601
