19
Iteration:   143
 C        -0.082288        -0.284779        -0.184902
 C         1.260313         0.504359        -0.057707
 C         1.958914         0.830376         1.237053
 C         3.344550         0.783055         0.598255
 O         4.270327         0.206363         1.571402
 C         3.761619         2.120513        -0.120173
 O         2.743299         2.359641        -1.080609
 C         2.004780         1.157030        -1.172726
 C         2.657997        -0.014578        -0.531785
 H        -0.024530        -1.245781         0.328114
 H        -0.985897         0.147062         0.284546
 H        -0.249049        -0.454066        -1.252630
 H         1.694180         1.780753         1.855606
 H         1.929993        -0.059988         1.932028
 H         5.006426         0.784819         1.754236
 H         3.679475         2.921601         0.610453
 H         4.783888         2.014516        -0.574852
 H         1.460311         0.960339        -2.170000
 H         2.997277        -0.980488        -0.911905
