19
Iteration:  3389
 C         0.186354        -0.560914        -0.786032
 C         1.335017         0.266453        -0.216658
 C         1.813437         0.569823         1.246101
 C         3.315581         0.824067         0.685127
 O         4.388093         0.251637         1.517514
 C         3.645404         2.342715         0.222367
 O         2.438080         2.598785        -0.602503
 C         1.972572         1.296998        -1.167938
 C         2.856607         0.154347        -0.614693
 H         0.283070        -1.704046        -0.604546
 H        -0.716829        -0.294648        -0.331924
 H         0.149799        -0.655119        -1.845327
 H         1.487082         1.405937         1.943480
 H         2.002400        -0.407494         1.807657
 H         4.285573        -0.687347         1.477707
 H         3.511465         3.079344         0.988203
 H         4.686289         2.251963        -0.297957
 H         1.468866         1.393944        -2.114346
 H         3.499220        -0.615582        -1.137794
