19
Iteration:  2936
 C         0.165172        -0.449952        -0.523140
 C         1.412705         0.362305        -0.178735
 C         1.833796         0.614603         1.230369
 C         3.292340         0.751792         0.682451
 O         4.375532         0.188840         1.466696
 C         3.417786         2.318261         0.249172
 O         2.518582         2.506448        -0.741030
 C         2.108332         1.248322        -1.227165
 C         2.912128         0.163265        -0.641845
 H        -0.094001        -1.279992         0.239206
 H        -0.735769         0.153914        -0.470101
 H         0.237020        -0.737872        -1.606500
 H         1.364570         1.464822         1.776541
 H         1.506616        -0.222179         1.799538
 H         4.379400        -0.649874         1.026422
 H         3.146153         3.026080         1.025767
 H         4.457989         2.575609        -0.104793
 H         1.745212         1.130716        -2.257614
 H         3.365290        -0.603403        -1.193041
