19
Iteration:  4983
 C         0.111506        -0.584567        -0.601089
 C         1.359859         0.340018        -0.360767
 C         1.797429         0.711270         1.101890
 C         3.287362         0.736778         0.630544
 O         4.427782         0.211063         1.579558
 C         3.541135         2.283658         0.317775
 O         2.434439         2.529584        -0.549374
 C         2.090845         1.315301        -1.230100
 C         2.949399         0.137423        -0.699640
 H         0.372477        -1.525191        -0.121195
 H        -0.884091        -0.135165        -0.333184
 H         0.022356        -0.855112        -1.702661
 H         1.278563         1.527800         1.570100
 H         1.649057        -0.315759         1.564930
 H         3.931121        -0.145069         2.287177
 H         3.546416         2.901457         1.214565
 H         4.533508         2.408543        -0.271486
 H         1.856746         1.522585        -2.275647
 H         3.628867        -0.427464        -1.377279
