19
Iteration:  1212charge 0 multiplicity 1
 C         0.100815        -0.440169        -0.554392
 C         1.349072         0.340316        -0.166787
 C         1.897788         0.600044         1.226034
 C         3.271567         0.766194         0.651572
 O         4.323086         0.281437         1.585860
 C         3.578052         2.168812         0.234454
 O         2.575742         2.525549        -0.819258
 C         2.024513         1.272241        -1.155771
 C         2.780272         0.087722        -0.721142
 H         0.135884        -1.404632         0.004474
 H        -0.887466        -0.046258        -0.137167
 H         0.064822        -0.535949        -1.670757
 H         1.612130         1.441705         1.838325
 H         1.786601        -0.374002         1.763316
 H         5.084686         0.811330         1.313028
 H         3.514000         2.854601         1.114818
 H         4.601383         2.270692        -0.275433
 H         1.613512         1.192757        -2.153627
 H         3.442520        -0.582117        -1.292173
