19
Iteration:  4694
 C         0.206006        -0.368594        -0.772303
 C         1.419571         0.300700        -0.260889
 C         1.831455         0.538067         1.248245
 C         3.283604         0.760331         0.764244
 O         4.450502         0.387450         1.542686
 C         3.498836         2.162742         0.351215
 O         2.434264         2.478466        -0.610665
 C         2.061514         1.325867        -1.242194
 C         2.792716         0.069300        -0.778690
 H        -0.125909        -1.307075        -0.165467
 H        -0.672093         0.188203        -0.578449
 H         0.304380        -0.701098        -1.773487
 H         1.426495         1.446364         1.787415
 H         1.877120        -0.351908         1.895045
 H         4.260912        -0.524486         1.772714
 H         3.476460         3.005884         1.118473
 H         4.511586         2.235781        -0.177555
 H         1.647663         1.371074        -2.217679
 H         3.392867        -0.589617        -1.347006
