19
Iteration:   929charge 0 multiplicity 1
 C         0.030183        -0.463938        -0.426616
 C         1.315800         0.318964        -0.171555
 C         1.870094         0.806710         1.189094
 C         3.321075         0.817898         0.691120
 O         4.317891         0.178727         1.554548
 C         3.681486         2.246438         0.041862
 O         2.539338         2.517696        -0.813963
 C         2.046663         1.206611        -1.195057
 C         2.796079         0.043278        -0.543687
 H        -0.140662        -1.400886         0.186566
 H        -0.820585         0.161996        -0.261525
 H         0.125404        -0.669005        -1.552827
 H         1.535270         1.832782         1.578249
 H         1.778699         0.000646         2.025569
 H         4.974614        -0.300301         1.033664
 H         3.710790         2.913991         0.927018
 H         4.694389         2.267539        -0.445276
 H         1.738076         1.186111        -2.255635
 H         3.325741        -0.764172        -1.166349
