19
Iteration:  4863
 C         0.009735        -0.365737        -0.645622
 C         1.447528         0.167998        -0.317154
 C         1.814222         0.499965         1.074035
 C         3.407403         0.797918         0.668181
 O         4.367166         0.266046         1.626309
 C         3.518207         2.272269         0.258730
 O         2.349561         2.575644        -0.601067
 C         2.159616         1.236618        -1.159262
 C         2.999078         0.166252        -0.655386
 H        -0.222257        -1.251781        -0.165066
 H        -0.758127         0.442830        -0.398381
 H        -0.068284        -0.580393        -1.750341
 H         1.270821         1.390331         1.280780
 H         1.930220        -0.284489         1.864668
 H         4.167490        -0.696878         1.815180
 H         3.564260         3.072937         1.001192
 H         4.437654         2.500732        -0.350077
 H         1.696123         1.165879        -2.154245
 H         3.625865        -0.445058        -1.283393
