19
Iteration:  1182
 C         0.116313        -0.477171        -0.443408
 C         1.420770         0.337979        -0.167424
 C         1.795866         0.711512         1.233052
 C         3.249812         0.840592         0.724242
 O         4.348409         0.060583         1.252540
 C         3.430558         2.365094         0.339294
 O         2.634340         2.508019        -0.908587
 C         2.162002         1.237352        -1.189513
 C         2.822069         0.108240        -0.590425
 H         0.056956        -1.322057         0.318182
 H        -0.737775         0.191450        -0.224376
 H         0.117505        -0.977252        -1.498967
 H         1.407715         1.609828         1.733934
 H         1.698642        -0.253325         1.746762
 H         4.436611         0.316552         2.237313
 H         3.061776         2.945193         1.187546
 H         4.493423         2.650789         0.106087
 H         1.682376         1.143972        -2.139653
 H         3.474600        -0.806775        -0.922468
