19
Iteration:    89
 C        -0.241459        -0.231441        -0.311589
 C         1.250602         0.332182        -0.121436
 C         1.960017         1.057015         1.210219
 C         3.403476         0.864151         0.644231
 O         4.521609         0.202944         1.452460
 C         3.798056         2.168545        -0.137952
 O         2.570914         2.337631        -0.893582
 C         2.014849         1.028447        -1.193590
 C         2.685590        -0.074065        -0.375874
 H        -0.380831        -1.125887         0.244100
 H        -0.867637         0.634937        -0.027747
 H        -0.530466        -0.474255        -1.327170
 H         1.627403         2.008840         1.744562
 H         1.849516         0.261474         1.990525
 H         4.056209        -0.395811         2.045762
 H         3.889868         3.014988         0.544670
 H         4.734416         2.119293        -0.718806
 H         1.936230         0.622500        -2.290832
 H         3.139155        -0.975857        -0.786685
