19
Iteration:  1414charge 0 multiplicity 1
 C         0.077737        -0.415179        -0.567582
 C         1.415630         0.231999        -0.264923
 C         1.835863         0.644321         1.227296
 C         3.284135         0.850156         0.716064
 O         4.288387         0.207809         1.479354
 C         3.592068         2.219099         0.258920
 O         2.440688         2.486748        -0.654385
 C         2.124405         1.243522        -1.254764
 C         2.931394         0.132369        -0.669297
 H        -0.131194        -1.450727        -0.221946
 H        -0.595936         0.117900         0.080897
 H        -0.261576        -0.415464        -1.640725
 H         1.292333         1.514317         1.478117
 H         1.670855        -0.143297         1.894919
 H         5.103654         0.790972         1.361237
 H         3.613781         2.923589         1.085782
 H         4.569560         2.182396        -0.207502
 H         1.739327         1.200548        -2.304182
 H         3.573738        -0.631672        -1.134950
