19
Iteration:  4680
 C         0.163621        -0.449477        -0.764332
 C         1.363204         0.315100        -0.197327
 C         1.898942         0.527456         1.237614
 C         3.363024         0.703713         0.679042
 O         4.409935         0.308568         1.569965
 C         3.438141         2.261585         0.306500
 O         2.537267         2.574853        -0.734660
 C         1.969308         1.302225        -1.130997
 C         2.862054         0.133316        -0.680442
 H         0.032258        -1.398616        -0.298697
 H        -0.656612         0.198955        -0.925938
 H         0.413943        -0.642468        -1.851843
 H         1.407361         1.354642         1.813054
 H         1.710286        -0.399910         1.739798
 H         4.396978        -0.677021         1.786721
 H         3.154481         2.765480         1.265073
 H         4.462013         2.591510         0.055211
 H         1.606773         1.437981        -2.197561
 H         3.002846        -0.800905        -1.209992
