19
Iteration:  2229
 C         0.094928        -0.559696        -0.668479
 C         1.409727         0.269898        -0.187192
 C         1.854520         0.608569         1.281002
 C         3.371654         0.773663         0.718610
 O         4.403529         0.330115         1.469801
 C         3.604819         2.215352         0.189133
 O         2.497779         2.563259        -0.682554
 C         1.950310         1.305774        -1.123420
 C         2.813802         0.176460        -0.698194
 H         0.099455        -1.416406         0.052594
 H        -0.917143        -0.113143        -0.487608
 H         0.106708        -0.929198        -1.656983
 H         1.488888         1.568504         1.726488
 H         1.684778        -0.160607         2.026146
 H         4.371483        -0.633030         1.274710
 H         3.540916         2.927817         1.015829
 H         4.615430         2.104984        -0.344326
 H         1.383893         1.478065        -1.993085
 H         3.390324        -0.508889        -1.406776
