19
Iteration:  2621
 C         0.241563        -0.640395        -0.531384
 C         1.287962         0.444029        -0.118440
 C         1.802751         0.669504         1.355338
 C         3.202417         0.778472         0.685305
 O         4.378551         0.270673         1.234727
 C         3.511220         2.263780         0.354701
 O         2.671485         2.497937        -0.814896
 C         2.114155         1.347083        -1.246180
 C         2.710147         0.128983        -0.580960
 H         0.419164        -1.587737         0.065248
 H        -0.931125        -0.372630        -0.631033
 H         0.551464        -0.757971        -1.587439
 H         1.467202         1.478552         1.976963
 H         1.853828        -0.382490         1.731158
 H         4.057842        -0.487828         1.758107
 H         3.084381         2.935598         1.154496
 H         4.645695         2.338509         0.126572
 H         1.797295         1.456588        -2.251661
 H         3.193459        -0.722393        -1.152176
