19
Iteration:    79
 C        -0.156738        -0.215553        -0.250913
 C         1.257765         0.395991        -0.026976
 C         1.979044         1.009439         1.270612
 C         3.388800         0.878684         0.642850
 O         4.410224         0.207962         1.443912
 C         3.735074         2.194169        -0.097943
 O         2.613314         2.314958        -0.967779
 C         2.118040         0.994155        -1.231193
 C         2.676385        -0.091357        -0.442912
 H        -0.437149        -0.978356         0.440029
 H        -0.916771         0.587144        -0.101215
 H        -0.248880        -0.561638        -1.269093
 H         1.610657         1.946075         1.703020
 H         1.994378         0.178194         1.981959
 H         4.009723        -0.680367         1.515772
 H         3.600381         3.077952         0.550434
 H         4.664306         2.286929        -0.634006
 H         1.738867         0.914929        -2.377329
 H         3.017184        -1.046972        -0.859385
