19
Iteration:  3883charge 0 multiplicity 1
 C         0.213313        -0.483295        -0.662563
 C         1.377397         0.308212        -0.254704
 C         1.770850         0.632050         1.215028
 C         3.263725         0.749791         0.745234
 O         4.394016         0.332072         1.432012
 C         3.506069         2.248835         0.376733
 O         2.488281         2.521823        -0.692944
 C         2.143620         1.249074        -1.243705
 C         2.863407         0.118012        -0.634639
 H         0.237955        -1.521848        -0.190796
 H        -0.675923        -0.011416        -0.386896
 H         0.299820        -0.682995        -1.775375
 H         1.383440         1.562328         1.751063
 H         1.540963        -0.237746         1.881762
 H         4.235859        -0.558927         1.725727
 H         3.288453         2.984226         1.199255
 H         4.410958         2.428381        -0.125817
 H         1.689294         1.336670        -2.284057
 H         3.195468        -0.743078        -1.179695
