19
Iteration:  1350
 C         0.177943        -0.512194        -0.588102
 C         1.325066         0.363666        -0.199995
 C         1.822066         0.579222         1.260212
 C         3.296080         0.778645         0.687993
 O         4.368152         0.346035         1.431229
 C         3.577353         2.181845         0.296268
 O         2.614478         2.513459        -0.800208
 C         1.981147         1.280474        -1.132099
 C         2.811346         0.133836        -0.692816
 H         0.024377        -1.244899         0.237061
 H        -0.789745         0.086456        -0.555967
 H         0.282280        -1.028199        -1.557090
 H         1.398882         1.504224         1.753226
 H         1.714348        -0.353534         1.868638
 H         4.198540        -0.481548         1.932226
 H         3.421931         2.930768         1.111361
 H         4.628116         2.365608        -0.133964
 H         1.448110         1.399810        -2.098299
 H         3.443020        -0.507166        -1.300326
