19
Iteration:  3474
 C         0.239913        -0.529341        -0.479963
 C         1.503400         0.225976        -0.230002
 C         1.707370         0.547713         1.197244
 C         3.250225         0.854458         0.643298
 O         4.269320         0.053133         1.296210
 C         3.405161         2.345064         0.418852
 O         2.493119         2.585654        -0.712404
 C         2.135050         1.311544        -1.201116
 C         3.012740         0.265159        -0.733070
 H         0.156723        -1.342977         0.293850
 H        -0.681223         0.145185        -0.518679
 H         0.237080        -0.877545        -1.492163
 H         1.006467         1.197947         1.715905
 H         1.898240        -0.307056         1.810566
 H         4.782185         0.359612         2.103133
 H         3.053114         3.044214         1.265938
 H         4.400866         2.600033         0.383586
 H         1.686680         1.368895        -2.166976
 H         3.592647        -0.576329        -1.195571
