19
Iteration:  4932charge 0 multiplicity 1
 C         0.268057        -0.639251        -0.741466
 C         1.286224         0.308165        -0.116661
 C         1.877472         0.569613         1.279867
 C         3.252567         0.829088         0.748189
 O         4.341391         0.160590         1.399490
 C         3.449743         2.342330         0.392508
 O         2.708249         2.542753        -0.851226
 C         2.027044         1.371694        -1.169219
 C         2.757749         0.230076        -0.609290
 H         0.375926        -1.685704        -0.394768
 H        -0.760459        -0.245429        -0.538940
 H         0.468157        -0.641728        -1.844114
 H         1.402805         1.517450         1.604683
 H         1.932572        -0.327558         1.911335
 H         3.929464        -0.552190         1.888092
 H         2.982893         2.873132         1.294610
 H         4.441623         2.825587         0.305528
 H         1.603307         1.466330        -2.180617
 H         3.189586        -0.537104        -1.292101
