19
Iteration:  1875charge 0 multiplicity 1
 C         0.168151        -0.590687        -0.613365
 C         1.283918         0.327093        -0.158490
 C         1.825478         0.580201         1.300331
 C         3.299530         0.810878         0.786066
 O         4.437130         0.258368         1.394348
 C         3.599696         2.246370         0.197573
 O         2.623512         2.567058        -0.801742
 C         1.932889         1.351186        -1.129539
 C         2.790973         0.180545        -0.677768
 H         0.175979        -1.498066         0.122505
 H        -0.959617        -0.365672        -0.692925
 H         0.332730        -0.959017        -1.671897
 H         1.335221         1.396262         1.836272
 H         1.495263        -0.293605         1.837583
 H         4.176602        -0.350079         2.160876
 H         3.493880         3.095170         0.968830
 H         4.668922         2.186587        -0.260377
 H         1.494467         1.428262        -2.141808
 H         3.394899        -0.620275        -1.166416
