19
Iteration:  3290
 C         0.246714        -0.436443        -0.724446
 C         1.394208         0.269034        -0.202020
 C         1.866402         0.527381         1.240135
 C         3.275656         0.789161         0.748516
 O         4.452962         0.283657         1.418134
 C         3.532901         2.195140         0.212756
 O         2.440146         2.553292        -0.638598
 C         1.970543         1.299647        -1.113891
 C         2.782065         0.115052        -0.681592
 H         0.028442        -1.464551        -0.255537
 H        -0.594288         0.192774        -0.669225
 H         0.311429        -0.521335        -1.781991
 H         1.240117         1.306873         1.793812
 H         1.784336        -0.355871         1.930301
 H         4.226605         0.380938         2.346787
 H         3.655306         2.914994         1.020516
 H         4.521243         2.268135        -0.255481
 H         1.642083         1.367760        -2.174677
 H         3.452232        -0.505993        -1.243752
