19
Iteration:  2378
 C         0.141841        -0.413439        -0.743297
 C         1.391549         0.211181        -0.124157
 C         1.930549         0.675118         1.301418
 C         3.273232         0.797683         0.653777
 O         4.416452         0.354354         1.319982
 C         3.531565         2.294197         0.235125
 O         2.454766         2.441746        -0.656441
 C         2.056231         1.204939        -1.060016
 C         2.770795         0.077822        -0.584148
 H        -0.035547        -1.471926        -0.583650
 H        -0.698633         0.191519        -0.376172
 H         0.151811        -0.373175        -1.875716
 H         1.500628         1.510973         1.799494
 H         1.920703        -0.114551         2.068497
 H         4.196032        -0.548198         1.679597
 H         3.509263         2.951802         1.151836
 H         4.577723         2.403735        -0.278133
 H         1.770395         1.139014        -2.067183
 H         3.397582        -0.511962        -1.340821
