19
Iteration:  4554charge 0 multiplicity 1
 C         0.157414        -0.478909        -0.848446
 C         1.411745         0.271453        -0.236833
 C         1.755321         0.558700         1.254645
 C         3.301809         0.881857         0.821859
 O         4.425955         0.284394         1.487085
 C         3.622407         2.217528         0.199862
 O         2.442292         2.592206        -0.575860
 C         1.994634         1.268462        -1.188181
 C         2.839715         0.127963        -0.634823
 H         0.230613        -1.524225        -0.401162
 H        -0.901310        -0.186007        -0.489900
 H         0.335012        -0.693096        -1.871637
 H         1.341886         1.324018         1.898824
 H         1.922131        -0.453731         1.746453
 H         4.039276        -0.505219         1.924813
 H         3.793456         3.012021         0.946001
 H         4.535192         2.153156        -0.404667
 H         1.795281         1.397150        -2.279472
 H         3.397145        -0.619303        -1.121715
