19
Iteration:  4274charge 0 multiplicity 1
 C         0.116914        -0.419810        -0.838231
 C         1.396207         0.188350        -0.258888
 C         1.795096         0.556553         1.210524
 C         3.335113         0.760027         0.739579
 O         4.434915         0.376238         1.503371
 C         3.564646         2.243834         0.282915
 O         2.404357         2.575955        -0.530664
 C         2.052355         1.275333        -1.128420
 C         2.895702         0.076563        -0.747160
 H         0.104890        -1.536374        -0.592463
 H        -0.643632        -0.044484        -0.165363
 H        -0.086654        -0.357949        -1.938048
 H         1.405703         1.503311         1.732032
 H         1.642826        -0.346563         1.842225
 H         4.449885        -0.367808         2.180008
 H         3.679802         3.069017         0.967583
 H         4.475964         2.094818        -0.322449
 H         1.690184         1.428768        -2.140745
 H         3.359934        -0.757401        -1.307057
