19
Iteration:   564charge 0 multiplicity 1
 C        -0.024759        -0.377055        -0.281619
 C         1.290201         0.428950        -0.161145
 C         1.886845         0.804796         1.217380
 C         3.308740         0.751200         0.664826
 O         4.410941         0.324080         1.450572
 C         3.704439         2.116371         0.104519
 O         2.675171         2.437683        -0.970491
 C         2.009137         1.166809        -1.246634
 C         2.695117         0.000877        -0.560950
 H        -0.256764        -0.845227         0.702293
 H        -0.847079         0.404701        -0.451476
 H         0.109932        -1.050792        -1.118516
 H         1.533551         1.629111         1.815845
 H         1.688600        -0.118010         1.788359
 H         4.257987         0.051148         2.388009
 H         3.616696         2.908836         0.859887
 H         4.687711         1.940312        -0.262859
 H         1.665762         1.126908        -2.225899
 H         3.116029        -0.854337        -1.093029
