19
Iteration:  3255charge 0 multiplicity 1
 C         0.113249        -0.504888        -0.759821
 C         1.393067         0.233594        -0.200742
 C         1.876489         0.673859         1.185362
 C         3.278043         0.863203         0.695596
 O         4.425353         0.299941         1.447827
 C         3.594540         2.264967         0.255146
 O         2.392779         2.501479        -0.538692
 C         2.049662         1.280976        -1.153767
 C         2.826508         0.055068        -0.591949
 H         0.006579        -1.549807        -0.438513
 H        -0.743322        -0.017469        -0.324284
 H         0.164343        -0.508826        -1.810637
 H         1.436857         1.696637         1.482775
 H         1.749562        -0.150753         1.865387
 H         4.608683        -0.602006         1.223004
 H         3.584712         2.849179         1.104596
 H         4.489243         2.210599        -0.367968
 H         1.938398         1.419512        -2.233829
 H         3.471048        -0.484000        -1.255539
