19
Iteration:   735
 C         0.103079        -0.514825        -0.362597
 C         1.289018         0.416913        -0.111513
 C         1.850619         0.984754         1.241746
 C         3.265775         0.822787         0.697400
 O         4.316171         0.029810         1.407946
 C         3.592346         2.259540         0.184890
 O         2.701353         2.436609        -0.975952
 C         2.061725         1.171011        -1.248623
 C         2.715765         0.073181        -0.477091
 H         0.104904        -1.392196         0.311704
 H        -0.700176         0.234227        -0.134974
 H         0.051671        -0.885499        -1.430866
 H         1.670819         2.038278         1.618329
 H         1.731554         0.192673         2.014831
 H         5.075768         0.144049         0.749740
 H         3.212470         3.103005         0.806691
 H         4.629498         2.542930        -0.108430
 H         1.616488         1.002335        -2.167663
 H         3.165595        -0.929051        -0.731699
