19
Iteration:  1126charge 0 multiplicity 1
 C         0.087568        -0.482235        -0.529731
 C         1.325657         0.320620        -0.176386
 C         1.909786         0.664869         1.192439
 C         3.366835         0.813301         0.623692
 O         4.251741         0.325740         1.592368
 C         3.681034         2.217514         0.085048
 O         2.542723         2.553999        -0.674167
 C         2.022877         1.241423        -1.152067
 C         2.756719         0.032359        -0.657633
 H         0.038562        -1.423130         0.086846
 H        -0.847945         0.114289        -0.552966
 H         0.084738        -0.932575        -1.586377
 H         1.577310         1.495488         1.789313
 H         1.733632        -0.235783         1.804290
 H         4.984298        -0.117155         1.140678
 H         3.846335         2.743235         1.020596
 H         4.635981         2.232989        -0.516813
 H         1.735883         1.138048        -2.190046
 H         3.067578        -0.693355        -1.364602
