19
Iteration:  1760charge 0 multiplicity 1
 C         0.219382        -0.510611        -0.583209
 C         1.292242         0.395288        -0.139869
 C         1.839639         0.631517         1.232346
 C         3.300757         0.760597         0.726449
 O         4.510629         0.259363         1.377197
 C         3.359895         2.288794         0.366894
 O         2.743944         2.502237        -0.956156
 C         1.999833         1.328392        -1.138160
 C         2.692053         0.104492        -0.643951
 H         0.221516        -1.489063        -0.056359
 H        -0.807420        -0.095749        -0.181709
 H         0.109599        -0.656267        -1.746931
 H         1.347266         1.266871         2.031535
 H         1.671328        -0.351344         1.793042
 H         4.225241        -0.481024         2.044463
 H         2.817943         2.852787         1.199887
 H         4.475538         2.465430         0.421276
 H         1.473239         1.230301        -2.124878
 H         3.341212        -0.816024        -1.042955
