19
Iteration:  1611
 C         0.221638        -0.493646        -0.586410
 C         1.364997         0.334127        -0.158399
 C         1.858107         0.715417         1.313358
 C         3.291800         0.863082         0.678896
 O         4.269406         0.128164         1.321440
 C         3.351676         2.353860         0.374538
 O         2.632376         2.498019        -0.777334
 C         2.192660         1.228678        -1.199153
 C         2.817462         0.062114        -0.580304
 H         0.402888        -1.517567        -0.254748
 H        -0.742574        -0.160319        -0.339236
 H         0.187647        -0.544890        -1.656626
 H         1.334730         1.717717         1.728273
 H         1.490343        -0.091564         2.004461
 H         4.848470         0.014445         0.501736
 H         2.895056         2.774524         1.298458
 H         4.363764         2.837588         0.238844
 H         1.694054         1.124136        -2.185273
 H         3.299741        -0.855129        -1.214443
