19
Iteration:  2457
 C         0.188711        -0.685713        -0.372743
 C         1.363198         0.322624        -0.285835
 C         1.861087         0.618180         1.188822
 C         3.325651         0.789904         0.664620
 O         4.324202         0.166846         1.378929
 C         3.522856         2.382131         0.417415
 O         2.611891         2.583337        -0.766645
 C         2.021658         1.406074        -1.244788
 C         2.789392         0.156998        -0.753227
 H         0.349836        -1.400199         0.404050
 H        -0.768181        -0.144684        -0.149358
 H         0.146944        -1.101041        -1.318751
 H         1.447497         1.517883         1.666255
 H         1.657153        -0.297755         1.766689
 H         3.929278        -0.731920         1.549784
 H         3.102317         2.922345         1.260245
 H         4.599711         2.671377         0.285353
 H         1.735454         1.274255        -2.327074
 H         3.336776        -0.504554        -1.377972
