19
Iteration:  4013
 C         0.181700        -0.430676        -0.729901
 C         1.428679         0.225309        -0.226372
 C         1.817997         0.563966         1.267805
 C         3.241141         0.823433         0.728499
 O         4.330347         0.281693         1.451918
 C         3.611235         2.277239         0.242783
 O         2.448946         2.563307        -0.643544
 C         2.069046         1.246803        -1.160086
 C         2.907926         0.096912        -0.687356
 H         0.033238        -1.413473        -0.156157
 H        -0.671346         0.155467        -0.517235
 H         0.158073        -0.655577        -1.841250
 H         1.238995         1.332934         1.849878
 H         1.910641        -0.360755         1.816868
 H         3.987635        -0.343695         2.085859
 H         3.401535         3.059559         1.040778
 H         4.590086         2.572386        -0.228286
 H         1.558188         1.202440        -2.148575
 H         3.612144        -0.617811        -1.123557
