19
Iteration:  4174
 C         0.229258        -0.595083        -0.715742
 C         1.346428         0.364976        -0.246168
 C         1.736961         0.626145         1.196168
 C         3.223725         0.782183         0.739809
 O         4.452136         0.279557         1.408700
 C         3.598016         2.269716         0.314850
 O         2.461179         2.537514        -0.563247
 C         2.055633         1.319469        -1.233700
 C         2.836212         0.158816        -0.603710
 H         0.137766        -1.459919        -0.038882
 H        -0.805981        -0.067075        -0.763987
 H         0.426024        -0.877797        -1.767696
 H         1.176443         1.427848         1.750560
 H         1.805212        -0.351633         1.834868
 H         4.469839        -0.670298         1.510995
 H         3.622346         2.917897         1.175772
 H         4.529228         2.437830        -0.270065
 H         1.915710         1.299678        -2.312273
 H         3.173686        -0.750240        -1.121803
