19
Iteration:  1261charge 0 multiplicity 1
 C         0.032946        -0.473902        -0.634563
 C         1.363316         0.311481        -0.203046
 C         1.883382         0.712772         1.180891
 C         3.374384         0.828508         0.690247
 O         4.351310         0.280746         1.442372
 C         3.598581         2.242488         0.116283
 O         2.451665         2.467551        -0.599482
 C         2.042426         1.215941        -1.138785
 C         2.918482         0.070093        -0.604405
 H         0.011246        -1.528242        -0.280102
 H        -0.823217        -0.012155        -0.133804
 H        -0.100789        -0.282548        -1.757337
 H         1.480330         1.637611         1.697447
 H         1.800759        -0.079326         1.953871
 H         4.018031        -0.287747         2.193808
 H         3.690284         2.996402         0.913510
 H         4.549571         2.262000        -0.549670
 H         1.901055         1.179645        -2.254041
 H         3.442769        -0.663156        -1.210684
