19
Iteration:  2029charge 0 multiplicity 1
 C         0.202974        -0.567399        -0.472782
 C         1.326306         0.382367        -0.187408
 C         1.875682         0.597260         1.221208
 C         3.256585         0.801859         0.644636
 O         4.320134         0.210834         1.276938
 C         3.488533         2.303527         0.322730
 O         2.587894         2.574825        -0.744623
 C         2.074019         1.269733        -1.137529
 C         2.869498         0.162598        -0.667726
 H         0.178451        -1.430974         0.272433
 H        -0.771473        -0.036814        -0.480073
 H         0.340111        -1.175199        -1.330997
 H         1.508507         1.424752         1.833392
 H         1.837448        -0.363131         1.759159
 H         3.835181        -0.435698         1.756988
 H         3.321268         2.968703         1.172177
 H         4.553312         2.503434         0.165480
 H         1.630222         1.232968        -2.111342
 H         3.298458        -0.565812        -1.305870
