19
Iteration:  4122charge 0 multiplicity 1
 C         0.226765        -0.349428        -0.666745
 C         1.513062         0.211013        -0.251728
 C         1.914888         0.547563         1.180127
 C         3.314035         0.815322         0.632134
 O         4.295017         0.306166         1.537148
 C         3.505014         2.249123         0.251798
 O         2.404023         2.477260        -0.593696
 C         2.025416         1.274507        -1.139270
 C         2.877778         0.104096        -0.733596
 H         0.093570        -1.379263        -0.237532
 H        -0.483944         0.279878        -0.253357
 H        -0.006559        -0.325593        -1.753156
 H         1.268697         1.212181         1.793524
 H         1.946536        -0.378499         1.661914
 H         3.743113        -0.307485         2.045322
 H         3.617373         2.909862         1.112470
 H         4.333562         2.459890        -0.451979
 H         1.510444         1.312144        -2.068970
 H         3.649485        -0.460652        -1.275892
