19
Iteration:  4548charge 0 multiplicity 1
 C         0.179552        -0.489402        -0.821515
 C         1.340193         0.281670        -0.243644
 C         1.798389         0.601874         1.239103
 C         3.334404         0.879424         0.785358
 O         4.413702         0.322591         1.451327
 C         3.554115         2.214708         0.269502
 O         2.495102         2.556370        -0.563892
 C         2.034254         1.231037        -1.191878
 C         2.800052         0.123285        -0.657187
 H         0.210896        -1.455614        -0.319704
 H        -0.824777        -0.155994        -0.597997
 H         0.363892        -0.741952        -1.913307
 H         1.389282         1.318054         1.994844
 H         1.886404        -0.387223         1.665110
 H         4.036677        -0.513735         1.878527
 H         3.555015         2.951798         1.087664
 H         4.546009         2.123430        -0.249585
 H         1.841307         1.513551        -2.196028
 H         3.341715        -0.731902        -1.163261
