19
Iteration:  2138
 C         0.097134        -0.466108        -0.687500
 C         1.360250         0.272401        -0.121295
 C         1.939399         0.557163         1.284178
 C         3.302176         0.825854         0.694151
 O         4.391184         0.364777         1.378149
 C         3.591817         2.227332         0.188182
 O         2.487583         2.518497        -0.627902
 C         2.001994         1.259417        -1.149633
 C         2.824129         0.112777        -0.657385
 H         0.176282        -1.577947        -0.558627
 H        -0.881792        -0.133211        -0.253672
 H         0.175015        -0.149853        -1.738380
 H         1.423350         1.253644         1.994516
 H         1.891707        -0.452772         1.777860
 H         4.116369        -0.145730         2.196426
 H         3.639537         3.059660         0.904083
 H         4.473473         2.055702        -0.535657
 H         1.698595         1.259241        -2.232588
 H         3.205777        -0.676184        -1.227210
