19
Iteration:  2909
 C         0.209775        -0.517115        -0.658492
 C         1.357207         0.312788        -0.100885
 C         1.850870         0.676173         1.290269
 C         3.253423         0.830056         0.688112
 O         4.407792         0.251364         1.290281
 C         3.465640         2.313535         0.429448
 O         2.636837         2.481930        -0.831359
 C         2.117275         1.267227        -1.208759
 C         2.714336         0.101983        -0.547956
 H         0.016751        -1.344907        -0.064148
 H        -0.819958        -0.064568        -0.573002
 H         0.405642        -0.766628        -1.677498
 H         1.427672         1.530749         1.825706
 H         1.665618        -0.153666         2.021950
 H         4.166622        -0.630858         1.035520
 H         3.026999         2.945028         1.239148
 H         4.471233         2.549830         0.133679
 H         1.401085         1.224984        -2.016596
 H         3.291861        -0.750037        -1.037574
