19
Iteration:  2098
 C         0.134207        -0.539875        -0.566732
 C         1.359863         0.263757        -0.226815
 C         1.884130         0.608121         1.204409
 C         3.330181         0.826706         0.731194
 O         4.374236         0.369708         1.483011
 C         3.635117         2.179061         0.135127
 O         2.460737         2.553375        -0.581614
 C         2.006198         1.315606        -1.130305
 C         2.797227         0.101418        -0.732786
 H         0.071865        -1.635385        -0.467997
 H        -0.811808        -0.056968        -0.220351
 H         0.114094        -0.588092        -1.629393
 H         1.448968         1.520059         1.637786
 H         1.816690        -0.221440         1.861964
 H         4.507318        -0.574959         1.453842
 H         3.827418         2.928315         0.934770
 H         4.549700         2.136531        -0.372398
 H         1.607932         1.439414        -2.173050
 H         3.123498        -0.681192        -1.469878
