19
Iteration:    50charge 0 multiplicity 1
 C         0.102961        -0.236438        -0.084415
 C         1.383604         0.424621        -0.024738
 C         1.847920         0.951660         1.316652
 C         3.235885         0.756952         0.711645
 O         4.308277         0.259495         1.477348
 C         3.606720         2.007102         0.003681
 O         2.821581         2.323784        -1.216723
 C         1.952198         1.174981        -1.205903
 C         2.686259        -0.005016        -0.609513
 H        -0.187685        -0.595473         0.938431
 H        -0.665358         0.567485        -0.038567
 H        -0.029318        -0.929449        -0.937312
 H         1.492309         1.904964         1.670268
 H         1.654469         0.113814         1.986810
 H         4.797677        -0.300852         0.790892
 H         3.351083         2.884945         0.662689
 H         4.674378         1.928315        -0.279681
 H         1.421221         1.192133        -2.172387
 H         3.014786        -0.907807        -1.156282
