19
Iteration:  1820
 C         0.040162        -0.358625        -0.525345
 C         1.438242         0.171692        -0.237177
 C         1.774009         0.670206         1.132102
 C         3.367167         0.835421         0.707096
 O         4.448785         0.274997         1.541091
 C         3.581762         2.261730         0.201204
 O         2.351283         2.464689        -0.648215
 C         2.088043         1.209669        -1.167772
 C         2.939595         0.111166        -0.722475
 H        -0.087109        -1.335398         0.067009
 H        -0.655944         0.480111        -0.204450
 H        -0.223387        -0.507608        -1.622828
 H         1.129060         1.471833         1.468915
 H         1.655969        -0.191032         1.781860
 H         4.384775        -0.714570         1.564175
 H         3.649006         3.185352         0.832881
 H         4.537402         2.410535        -0.350815
 H         1.941346         1.228324        -2.259057
 H         3.500805        -0.595421        -1.271856
