19
Iteration:  1382charge 0 multiplicity 1
 C         0.128302        -0.352308        -0.706821
 C         1.411911         0.228895        -0.237728
 C         1.905681         0.684806         1.223212
 C         3.406613         0.820666         0.695745
 O         4.371715         0.167734         1.439372
 C         3.588231         2.310380         0.157316
 O         2.291145         2.511004        -0.625839
 C         2.094229         1.171013        -1.142478
 C         2.870995        -0.002700        -0.567480
 H        -0.062326        -1.303785        -0.176814
 H        -0.563500         0.415321        -0.302148
 H        -0.136814        -0.373387        -1.778232
 H         1.369554         1.558747         1.513333
 H         1.697493         0.014739         1.985647
 H         4.293391         0.567643         2.309671
 H         3.603624         2.971004         1.041030
 H         4.478561         2.462620        -0.518192
 H         1.695433         1.298624        -2.160254
 H         3.525524        -0.729266        -1.055507
