19
Iteration:   779charge 0 multiplicity 1
 C         0.053983        -0.345569        -0.365838
 C         1.362981         0.311808        -0.138551
 C         1.878845         0.729792         1.309770
 C         3.276523         0.845974         0.653543
 O         4.315548         0.324406         1.393070
 C         3.645003         2.125378         0.138515
 O         2.675306         2.466745        -0.902505
 C         2.018119         1.197155        -1.238712
 C         2.771091         0.035487        -0.624127
 H        -0.101433        -0.929513         0.587555
 H        -0.845407         0.393641        -0.451145
 H         0.046900        -1.159472        -1.188647
 H         1.377331         1.626443         1.817160
 H         1.945973        -0.206807         1.924192
 H         3.888762        -0.023465         2.256092
 H         3.687182         2.866190         1.001152
 H         4.627784         1.889950        -0.365577
 H         1.667360         1.127455        -2.243023
 H         3.159641        -0.954535        -1.080384
