19
Iteration:  4817charge 0 multiplicity 1
 C         0.232031        -0.562833        -0.659620
 C         1.361098         0.276113        -0.275355
 C         1.758936         0.599280         1.235644
 C         3.203071         0.759449         0.706774
 O         4.366161         0.302709         1.364633
 C         3.523686         2.251822         0.333273
 O         2.587677         2.612577        -0.660160
 C         2.066409         1.316257        -1.108133
 C         2.840974         0.113033        -0.645731
 H         0.083863        -1.549047        -0.185999
 H        -0.705063         0.002337        -0.661212
 H         0.327843        -0.736683        -1.716078
 H         1.295151         1.477484         1.614798
 H         1.619524        -0.352092         1.809826
 H         4.170523        -0.406711         1.968667
 H         3.522856         2.894454         1.214568
 H         4.612343         2.294768        -0.013696
 H         2.038912         1.504350        -2.208229
 H         3.318064        -0.718887        -1.200118
