19
Iteration:  3178
 C         0.221679        -0.603755        -0.525937
 C         1.338105         0.324955        -0.219387
 C         1.805299         0.597815         1.224760
 C         3.227017         0.727723         0.741541
 O         4.369727         0.221584         1.326440
 C         3.507902         2.309671         0.361438
 O         2.624375         2.551629        -0.771476
 C         2.048709         1.372328        -1.170122
 C         2.791034         0.156076        -0.725908
 H         0.317226        -1.630514         0.032628
 H        -0.734988        -0.080615        -0.262620
 H         0.088722        -0.850776        -1.584746
 H         1.429232         1.561054         1.795789
 H         1.601691        -0.288641         1.848396
 H         4.462613         0.089263         2.321803
 H         3.265473         2.931450         1.211720
 H         4.608462         2.464038         0.008224
 H         1.698441         1.384211        -2.184374
 H         3.461645        -0.483560        -1.377161
