19
Iteration:  4159
 C         0.114832        -0.564129        -0.809928
 C         1.307999         0.262127        -0.353824
 C         1.793270         0.638991         1.187505
 C         3.432181         0.788967         0.710418
 O         4.492353         0.371571         1.495850
 C         3.629122         2.174049         0.255140
 O         2.394855         2.556115        -0.530751
 C         2.021703         1.311648        -1.081627
 C         2.804920         0.123455        -0.610263
 H        -0.002591        -1.472914        -0.235468
 H        -0.824853         0.028235        -0.615704
 H         0.248562        -0.927734        -1.823764
 H         1.419853         1.496096         1.707409
 H         1.473507        -0.307378         1.674463
 H         4.145412        -0.465714         1.950113
 H         3.625368         2.975079         1.038001
 H         4.563176         2.126451        -0.316246
 H         1.819579         1.429517        -2.187709
 H         3.469663        -0.453844        -1.256720
