19
Iteration:  1202
 C         0.114158        -0.448812        -0.494872
 C         1.292880         0.375483        -0.177891
 C         1.888882         0.609037         1.243324
 C         3.329856         0.798301         0.644525
 O         4.278991         0.212451         1.457049
 C         3.544567         2.301354         0.260730
 O         2.627548         2.483331        -0.802231
 C         2.016022         1.219835        -1.201709
 C         2.794906         0.081312        -0.681632
 H         0.210162        -1.477217        -0.017265
 H        -0.838878         0.158697        -0.239411
 H         0.108207        -0.742149        -1.621096
 H         1.436579         1.389245         1.850138
 H         2.048191        -0.330117         1.815319
 H         4.996451         0.802926         1.783620
 H         3.243225         2.948824         1.126555
 H         4.678183         2.493148         0.027210
 H         1.842549         1.263355        -2.256080
 H         3.368942        -0.797732        -1.125275
