19
Iteration:   222charge 0 multiplicity 1
 C        -0.197674        -0.271380        -0.316593
 C         1.283055         0.427519        -0.093619
 C         1.910622         0.895044         1.235192
 C         3.391446         0.787918         0.678033
 O         4.559820         0.215679         1.494634
 C         3.694101         2.073169        -0.116676
 O         2.617162         2.392258        -0.970261
 C         1.969171         1.147146        -1.191631
 C         2.717355        -0.007662        -0.426934
 H        -0.458790        -0.996885         0.388485
 H        -0.961062         0.500294        -0.429065
 H        -0.207735        -0.786059        -1.263458
 H         1.537837         1.920166         1.555709
 H         1.897223         0.076609         1.978346
 H         4.197053         0.211315         2.379891
 H         3.952984         2.966862         0.478274
 H         4.596832         1.824444        -0.691053
 H         1.714788         0.940134        -2.186205
 H         3.072089        -0.926789        -0.885478
