19
Iteration:   348
 C        -0.063894        -0.363627        -0.254227
 C         1.226203         0.451766        -0.094293
 C         1.968594         0.805425         1.246254
 C         3.349190         0.808135         0.641653
 O         4.372961         0.199583         1.495428
 C         3.752772         2.145409        -0.029612
 O         2.772738         2.434921        -1.046738
 C         1.898750         1.129904        -1.197487
 C         2.647631         0.007086        -0.515511
 H        -0.076350        -1.145890         0.513719
 H        -0.926699         0.249842        -0.154904
 H        -0.168272        -0.750584        -1.255813
 H         1.543428         1.709079         1.666873
 H         1.929229         0.145914         2.103744
 H         4.300749         0.720000         2.299557
 H         3.699985         2.839645         0.812930
 H         4.768566         2.078935        -0.380651
 H         1.713602         1.113098        -2.318922
 H         2.920430        -0.845460        -1.105367
