19
Iteration:  1580charge 0 multiplicity 1
 C         0.131036        -0.479512        -0.548769
 C         1.373470         0.324552        -0.256445
 C         1.798303         0.493886         1.217854
 C         3.278070         0.796505         0.743336
 O         4.332804         0.239290         1.554437
 C         3.515407         2.290470         0.258736
 O         2.628227         2.538718        -0.825538
 C         2.051040         1.293231        -1.153342
 C         2.829832         0.148768        -0.665087
 H         0.298051        -1.502193        -0.078818
 H        -0.808656        -0.023055        -0.049516
 H        -0.070316        -0.680594        -1.593703
 H         1.287081         1.374879         1.694813
 H         1.644315        -0.506179         1.613350
 H         5.114058         0.460035         1.036905
 H         3.333653         2.863223         1.200094
 H         4.553133         2.445593        -0.103258
 H         1.636675         1.387565        -2.192270
 H         3.289656        -0.597951        -1.405182
