19
Iteration:  4549charge 0 multiplicity 1
 C         0.169581        -0.480521        -0.829444
 C         1.355582         0.278422        -0.242002
 C         1.787317         0.592478         1.242254
 C         3.333409         0.885763         0.796615
 O         4.416727         0.314910         1.457438
 C         3.564053         2.211388         0.256194
 O         2.486208         2.564761        -0.564853
 C         2.024100         1.232168        -1.192790
 C         2.803979         0.124743        -0.654255
 H         0.216919        -1.491265        -0.316865
 H        -0.802597        -0.192637        -0.576975
 H         0.371944        -0.748150        -1.913685
 H         1.392023         1.332258         1.995980
 H         1.905865        -0.384138         1.660391
 H         4.033407        -0.497558         1.876591
 H         3.591918         2.967256         1.075868
 H         4.556898         2.117770        -0.282131
 H         1.847249         1.509725        -2.217703
 H         3.360955        -0.726137        -1.159217
