19
Iteration:   443
 C         3.990566        -2.383292        -0.232846
 C         3.160682        -1.162758         0.208453
 O         2.077926        -0.999426        -0.709830
 C         1.456634         0.083302         0.196492
 C        -0.074827         0.348432         0.208009
 C         2.258919         1.281631        -0.313506
 O         3.605630         1.279190         0.081846
 C         3.653216         0.092712         0.848968
 C         2.346911        -0.431360         1.380080
 H         4.691672        -2.725206         0.545108
 H         3.484672        -3.285906        -0.726993
 H         4.760464        -1.899310        -1.005318
 H        -0.229473         0.605423        -0.859727
 H        -0.632281        -0.588401         0.338667
 H        -0.309032         1.189186         0.880813
 H         2.429316         1.334104        -1.393863
 H         1.786014         2.262487         0.014292
 H         4.544198         0.079617         1.416445
 H         2.068456        -0.810236         2.405350
