19
Iteration:  3709charge 0 multiplicity 1
 C         3.524063        -2.564016         0.078101
 C         3.100509        -1.198952         0.185590
 O         2.458542        -0.527195        -0.995006
 C         1.605784         0.202625        -0.116185
 C         0.111465        -0.007290        -0.480774
 C         2.329845         1.585901         0.018333
 O         3.676982         1.272982         0.553980
 C         3.536138        -0.053942         1.165688
 C         2.122949        -0.570896         1.152892
 H         2.794027        -3.079809        -0.484084
 H         4.408791        -2.747222        -0.622452
 H         3.737834        -2.949072         1.047773
 H        -0.389649         0.939755        -0.588513
 H         0.183574        -0.625598        -1.462826
 H        -0.337086        -0.579820         0.379818
 H         2.647484         2.065705        -0.967301
 H         1.955371         2.270665         0.800395
 H         4.207558        -0.097462         2.078483
 H         1.709327        -1.246407         1.945409
