19
Iteration:  4931
 C         3.941672        -2.307636        -0.361549
 C         3.035288        -1.256967         0.192232
 O         2.383122        -0.599796        -0.996393
 C         1.594063         0.116275        -0.062315
 C         0.174593         0.284466        -0.469029
 C         2.342711         1.468914         0.133008
 O         3.535892         1.158089         0.854496
 C         3.435388        -0.119838         1.198479
 C         2.043399        -0.674861         1.116312
 H         3.469510        -2.711706        -1.180226
 H         4.969270        -2.007625        -0.656041
 H         4.138710        -3.086824         0.387298
 H        -0.572014        -0.295634         0.081495
 H        -0.093289         1.228836        -0.529864
 H         0.084299        -0.286660        -1.434856
 H         2.602389         1.986545        -0.792586
 H         1.664145         2.221265         0.661834
 H         3.910715        -0.307301         2.148271
 H         1.363725        -1.207283         1.749716
