19
Iteration:  1269charge 0 multiplicity 1
 C         3.710655        -2.567264         0.212268
 C         3.168123        -1.193297         0.155376
 O         2.154645        -0.827583        -0.797398
 C         1.496630         0.117418         0.082478
 C         0.021343         0.007092         0.179977
 C         2.127713         1.443333        -0.175707
 O         3.557547         1.374236        -0.091653
 C         3.808880         0.186507         0.642760
 C         2.556386        -0.366964         1.315847
 H         3.700865        -3.016231         1.254600
 H         2.988043        -3.290829        -0.259848
 H         4.711310        -2.787303        -0.142122
 H        -0.449378         0.944793        -0.140608
 H        -0.323124        -0.864474        -0.414048
 H        -0.261498        -0.185184         1.189030
 H         1.991180         1.803401        -1.202450
 H         1.801240         2.151227         0.576581
 H         4.763870         0.267145         1.188356
 H         2.053597        -0.692046         2.310932
