19
Iteration:  1079
 C         3.645118        -2.532850         0.101746
 C         3.098717        -1.205765         0.182174
 O         2.215244        -0.767865        -0.856532
 C         1.537007         0.188862         0.104588
 C         0.137034        -0.096832         0.317197
 C         2.092971         1.501966        -0.203391
 O         3.647965         1.240999        -0.106025
 C         3.732473         0.182190         0.719960
 C         2.446346        -0.309205         1.273164
 H         3.894398        -2.912833         1.134602
 H         2.849270        -3.232257        -0.237777
 H         4.606932        -2.479945        -0.487390
 H        -0.497609        -0.057188        -0.573807
 H         0.050342        -1.157373         0.512460
 H        -0.326875         0.357330         1.218692
 H         1.871647         1.895725        -1.225093
 H         1.943764         2.258857         0.646697
 H         4.666497         0.036265         1.388365
 H         1.904573        -0.421047         2.168147
