19
Iteration:  1948charge 0 multiplicity 1
 C         3.991897        -2.498356        -0.125680
 C         3.117199        -1.205822         0.080970
 O         2.268022        -0.766299        -0.951874
 C         1.547249         0.131282         0.036291
 C         0.040024         0.373788        -0.253854
 C         2.200984         1.455630         0.053994
 O         3.477093         1.276035         0.518804
 C         3.664405        -0.044686         0.999805
 C         2.246305        -0.667861         1.230550
 H         4.725723        -2.286449        -0.943730
 H         4.468459        -2.664754         0.848571
 H         3.377477        -3.263354        -0.639026
 H        -0.255525        -0.192629        -1.146622
 H        -0.776593         0.178520         0.488897
 H        -0.089465         1.422897        -0.525714
 H         2.279980         1.739360        -1.005202
 H         1.639950         2.209452         0.717382
 H         4.287858        -0.101771         1.856131
 H         1.768804        -1.137524         2.130086
