19
Iteration:   475
 C         3.904090        -2.416897        -0.044996
 C         3.007832        -1.220731         0.164056
 O         2.042352        -0.900512        -0.820058
 C         1.530631         0.202327         0.103115
 C         0.083360         0.069498         0.305058
 C         2.295882         1.473749        -0.287533
 O         3.618013         1.247579         0.077693
 C         3.670732         0.055545         0.786592
 C         2.351823        -0.357257         1.298716
 H         4.431194        -2.676088         0.854845
 H         3.522350        -3.415252        -0.409631
 H         4.671205        -1.947963        -0.737940
 H        -0.407211         0.667405        -0.486385
 H        -0.086811        -0.993174         0.099910
 H        -0.319456         0.404776         1.273883
 H         2.188088         1.549258        -1.388767
 H         1.808230         2.363306         0.167900
 H         4.557397        -0.026816         1.365609
 H         1.974551        -0.564691         2.341121
