19
Iteration:  3105
 C         3.818059        -2.554894         0.052193
 C         3.051425        -1.235699         0.191102
 O         2.277712        -0.770406        -0.918036
 C         1.571734         0.212023        -0.081466
 C         0.162654         0.252827        -0.694810
 C         2.288911         1.501309         0.054196
 O         3.638398         1.338639         0.730277
 C         3.511417        -0.060160         1.082107
 C         2.150217        -0.577639         1.202563
 H         3.184129        -3.430801        -0.337083
 H         4.412993        -2.259398        -0.946780
 H         4.531473        -2.759813         0.857901
 H         0.095592         1.197853        -1.229332
 H         0.124633        -0.534596        -1.565095
 H        -0.609434         0.153858         0.044010
 H         2.598011         1.922105        -0.895950
 H         1.707522         2.289731         0.634413
 H         4.143878        -0.417900         1.910017
 H         1.546058        -1.111861         1.990880
