19
Iteration:  1582
 C         3.995633        -2.511100        -0.099118
 C         3.152496        -1.156991         0.109926
 O         2.114532        -0.861900        -0.841798
 C         1.471818         0.048064         0.063071
 C        -0.018752         0.249582         0.060500
 C         2.180314         1.446972        -0.102803
 O         3.559377         1.337019         0.239817
 C         3.727786         0.095267         0.877943
 C         2.349674        -0.563003         1.304910
 H         3.649355        -3.413835         0.432942
 H         3.914318        -2.745377        -1.254615
 H         5.054833        -2.258832         0.180613
 H        -0.042716         1.170361        -0.593166
 H        -0.564936        -0.499237        -0.525380
 H        -0.476945         0.559802         1.006097
 H         2.105089         1.674790        -1.205188
 H         1.674690         2.270269         0.373406
 H         4.608640        -0.245867         1.495709
 H         2.028007        -0.831202         2.259423
