19
Iteration:  3172charge 0 multiplicity 1
 C         3.608270        -2.610539         0.051436
 C         3.183240        -1.193159         0.152537
 O         2.693890        -0.603213        -1.023896
 C         1.642424         0.204482        -0.144368
 C         0.156932         0.114461        -0.403371
 C         2.234763         1.623230         0.043120
 O         3.544650         1.242711         0.623380
 C         3.420807        -0.063061         1.158399
 C         2.067696        -0.549921         1.063982
 H         2.798695        -3.055902        -0.581112
 H         4.638031        -2.815859        -0.544602
 H         3.570884        -3.165164         1.028868
 H        -0.285533         0.208532        -1.415780
 H        -0.311136        -0.847398        -0.010067
 H        -0.278882         0.832384         0.295950
 H         2.290822         2.161501        -0.924510
 H         1.459169         1.959955         0.725119
 H         4.085925        -0.220788         2.058138
 H         1.512094        -0.993071         1.827694
