19
Iteration:  2695charge 0 multiplicity 1
 C         3.982461        -2.321534        -0.172837
 C         3.036511        -1.315446         0.223904
 O         2.522787        -0.581369        -0.956906
 C         1.481055         0.174021        -0.142473
 C         0.042319         0.239939        -0.390414
 C         2.351697         1.517057         0.043487
 O         3.655028         1.142438         0.612119
 C         3.402626        -0.194725         1.236417
 C         1.965544        -0.621432         1.121536
 H         3.464730        -3.029953        -0.785075
 H         4.646298        -1.705918        -0.725278
 H         4.420592        -2.827089         0.640415
 H        -0.297917         1.287165        -0.554563
 H        -0.087567        -0.465055        -1.320442
 H        -0.495697        -0.244112         0.389494
 H         2.601372         2.122286        -0.885236
 H         1.891985         2.164127         0.871588
 H         3.806865        -0.313860         2.230974
 H         1.111977        -1.111068         1.738397
