19
Iteration:  3561charge 0 multiplicity 1
 C         3.597832        -2.638735        -0.005303
 C         3.107054        -1.199124         0.221924
 O         2.535881        -0.652089        -0.992281
 C         1.638217         0.171421        -0.063549
 C         0.193953         0.210724        -0.488345
 C         2.214938         1.574384         0.043493
 O         3.515346         1.338367         0.634608
 C         3.564191        -0.062045         1.058993
 C         2.152515        -0.616278         1.160260
 H         2.894177        -3.274055        -0.680666
 H         4.639704        -2.672327        -0.213539
 H         3.684394        -3.385162         0.809073
 H         0.140352         0.037252        -1.548182
 H        -0.467488        -0.501063         0.032939
 H        -0.256708         1.173220        -0.386578
 H         2.345220         2.007815        -0.947125
 H         1.567723         2.257885         0.720047
 H         4.357830        -0.312743         1.784397
 H         1.706311        -0.994564         2.140879
