19
Iteration:   607
 C         3.943878        -2.414164        -0.060824
 C         3.086875        -1.218610         0.239126
 O         2.116687        -0.854631        -0.878575
 C         1.518658         0.123448         0.105208
 C         0.055161         0.163650         0.312772
 C         2.177061         1.466566        -0.275468
 O         3.610983         1.258799        -0.005777
 C         3.672081         0.049833         0.858471
 C         2.343269        -0.435238         1.337331
 H         4.757973        -2.531535         0.620650
 H         3.380694        -3.326084        -0.107498
 H         4.404654        -2.067829        -1.023596
 H        -0.691400         0.239239        -0.463933
 H        -0.212918        -0.875207         0.633254
 H        -0.060597         0.882035         1.141545
 H         2.003118         1.483952        -1.356526
 H         1.760650         2.365861         0.265840
 H         4.693750        -0.186733         1.109445
 H         1.799654        -0.686305         2.231973
