19
Iteration:  1488
 C         3.524097        -2.609969         0.024357
 C         3.177533        -1.213664         0.188839
 O         2.257202        -0.766792        -0.853564
 C         1.536412         0.112842         0.086838
 C         0.108508        -0.076306         0.083257
 C         2.134644         1.451767        -0.123961
 O         3.530479         1.444448         0.081103
 C         3.792857         0.198577         0.770215
 C         2.507357        -0.393419         1.322876
 H         3.650142        -2.960635        -1.045425
 H         4.348662        -2.899700         0.588766
 H         2.728571        -3.210403         0.510157
 H        -0.251579        -0.173002         1.097274
 H        -0.210026         0.795583        -0.493583
 H        -0.068097        -0.982319        -0.539804
 H         1.853096         1.929458        -1.069292
 H         1.649183         2.176457         0.611023
 H         4.843957         0.158653         1.193992
 H         2.524730        -0.712269         2.378528
