19
Iteration:  3371charge 0 multiplicity 1
 C         3.637261        -2.505281         0.010091
 C         3.049588        -1.183724         0.221756
 O         2.587344        -0.499829        -0.982672
 C         1.626921         0.194380        -0.062003
 C         0.204694         0.064285        -0.479896
 C         2.284587         1.588337         0.085468
 O         3.580437         1.157284         0.446780
 C         3.527786        -0.044722         1.184545
 C         1.990659        -0.681549         1.198002
 H         2.956214        -3.127369        -0.623884
 H         4.715606        -2.353219        -0.393444
 H         3.694755        -3.149552         0.952782
 H         0.263978         0.161450        -1.584286
 H        -0.406100        -0.732387        -0.184876
 H        -0.406301         0.981207        -0.372231
 H         2.284671         2.211726        -0.896059
 H         1.775657         2.308531         0.857162
 H         4.231412        -0.363087         1.977412
 H         1.405617        -1.040778         2.061068
