19
Iteration:  3523
 C         3.613002        -2.624443         0.155341
 C         3.094521        -1.218080         0.178779
 O         2.462463        -0.512137        -1.024690
 C         1.580726         0.149429        -0.121816
 C         0.062205         0.088447        -0.584937
 C         2.277587         1.555733         0.207010
 O         3.731136         1.268092         0.517345
 C         3.563621        -0.030704         1.139428
 C         2.099711        -0.582222         1.118642
 H         2.895676        -3.245621        -0.339008
 H         4.400319        -2.571949        -0.640229
 H         3.807146        -2.789252         1.217865
 H         0.026314         0.544339        -1.648581
 H        -0.350674        -0.916321        -0.661257
 H        -0.544577         0.721518         0.145811
 H         2.333582         2.215680        -0.718072
 H         1.692281         1.981268         1.014251
 H         4.380403        -0.254326         1.843294
 H         1.824165        -1.237424         1.907143
