19
Iteration:   698charge 0 multiplicity 1
 C         3.682229        -2.596614        -0.015986
 C         3.134347        -1.174304         0.216903
 O         2.196617        -0.738802        -0.804143
 C         1.541545         0.129558         0.097647
 C         0.009215        -0.127115         0.291561
 C         2.164537         1.565679        -0.162742
 O         3.629966         1.341697        -0.067051
 C         3.749040         0.123820         0.746274
 C         2.439847        -0.352026         1.280798
 H         4.305484        -2.952805         0.863009
 H         2.911353        -3.309647        -0.246119
 H         4.324018        -2.616878        -0.913018
 H        -0.554428         0.305814        -0.538846
 H        -0.191445        -1.174105         0.076157
 H        -0.350406         0.135954         1.310130
 H         2.084329         1.948981        -1.224910
 H         1.800251         2.376736         0.531753
 H         4.626799        -0.025751         1.392381
 H         2.217855        -0.561480         2.332488
