19
Iteration:   473charge 0 multiplicity 1
 C         3.919828        -2.390366        -0.064345
 C         3.006341        -1.225880         0.185168
 O         2.035957        -0.914434        -0.812882
 C         1.523291         0.203037         0.105953
 C         0.065774         0.076721         0.294969
 C         2.278107         1.469150        -0.288214
 O         3.629555         1.246750         0.077619
 C         3.662080         0.050046         0.796110
 C         2.364049        -0.364819         1.291344
 H         4.421014        -2.697427         0.801020
 H         3.512045        -3.360399        -0.400980
 H         4.640087        -1.979198        -0.701852
 H        -0.424650         0.677956        -0.480588
 H        -0.121438        -0.965805         0.102650
 H        -0.247625         0.454271         1.270576
 H         2.320254         1.550930        -1.380903
 H         1.832272         2.367607         0.098137
 H         4.614649        -0.039108         1.405748
 H         2.007689        -0.552795         2.301955
