19
Iteration:  1913charge 0 multiplicity 1
 C         3.777698        -2.448627        -0.187900
 C         3.153957        -1.145624         0.138858
 O         2.302449        -0.705950        -0.961099
 C         1.588020         0.182748         0.031619
 C         0.054874         0.080159        -0.151058
 C         2.319325         1.509552        -0.009811
 O         3.539265         1.284271         0.560967
 C         3.631800        -0.045800         0.981896
 C         2.203280        -0.560835         1.196383
 H         4.890561        -2.236444        -0.101733
 H         3.584834        -3.271531         0.485284
 H         3.446119        -2.890709        -1.149263
 H        -0.055490        -0.732141        -0.850685
 H        -0.592783        -0.067145         0.706891
 H        -0.371466         0.946829        -0.688132
 H         2.465984         1.781269        -1.084759
 H         1.644117         2.277574         0.360314
 H         4.208131        -0.232789         1.931569
 H         1.615981        -1.088704         1.911659
