19
Iteration:  3409charge 0 multiplicity 1
 C         3.822944        -2.551819         0.121612
 C         3.055835        -1.234858         0.133474
 O         2.384440        -0.706506        -1.088643
 C         1.560117         0.208451        -0.124955
 C         0.094572         0.213251        -0.523677
 C         2.333748         1.653092         0.065311
 O         3.589504         1.267887         0.743985
 C         3.527897        -0.176436         1.034138
 C         2.094236        -0.589499         1.155206
 H         3.310372        -3.384247        -0.397467
 H         4.735103        -2.505067        -0.410508
 H         4.107013        -2.748747         1.136147
 H         0.046163         0.323144        -1.628032
 H        -0.354888        -0.848182        -0.328200
 H        -0.402659         0.968808         0.097808
 H         2.566164         2.229787        -0.784739
 H         1.844008         2.306625         0.788987
 H         4.309926        -0.273176         1.772714
 H         1.430990        -0.725301         2.048741
