19
Iteration:  3103charge 0 multiplicity 1
 C         3.830304        -2.565802         0.028605
 C         3.053122        -1.231463         0.202010
 O         2.289879        -0.788326        -0.904609
 C         1.568777         0.199923        -0.088818
 C         0.156928         0.278155        -0.690512
 C         2.287858         1.529791         0.031668
 O         3.634770         1.341584         0.728206
 C         3.524604        -0.054684         1.097308
 C         2.137625        -0.578628         1.212994
 H         3.187955        -3.490774        -0.349437
 H         4.393605        -2.228441        -0.906046
 H         4.544154        -2.769296         0.833000
 H         0.081995         1.155372        -1.261485
 H         0.129903        -0.432320        -1.519303
 H        -0.645848         0.142652        -0.009581
 H         2.532213         1.858031        -0.947070
 H         1.679628         2.243679         0.690946
 H         4.086028        -0.511469         1.884121
 H         1.552482        -1.151531         2.018083
