19
Iteration:  4222charge 0 multiplicity 1
 C         3.621351        -2.586603         0.131994
 C         3.080005        -1.208572         0.121718
 O         2.449385        -0.658774        -1.063049
 C         1.630494         0.144259        -0.129868
 C         0.179750         0.200397        -0.448710
 C         2.277076         1.531216         0.018883
 O         3.571424         1.280129         0.630630
 C         3.562269        -0.067283         1.061786
 C         2.136054        -0.491734         1.205931
 H         2.981503        -3.438661         0.225782
 H         4.334588        -2.886398        -0.756586
 H         4.233531        -2.476232         1.029724
 H        -0.491839         0.758730         0.238041
 H         0.240176         0.489192        -1.490177
 H        -0.307177        -0.792764        -0.456005
 H         2.432822         2.058725        -0.919147
 H         1.737210         2.003464         0.789253
 H         4.225994        -0.445008         1.809279
 H         1.489480        -0.873411         2.019311
