19
Iteration:   255
 C         4.073799        -2.285448        -0.004615
 C         3.124147        -1.161408         0.143913
 O         2.070876        -0.924986        -0.915922
 C         1.459716         0.070006         0.108250
 C        -0.010924         0.304033         0.342719
 C         2.264827         1.311960        -0.192714
 O         3.660258         1.200184        -0.023149
 C         3.608539         0.051131         0.834819
 C         2.229964        -0.464389         1.267531
 H         4.787758        -2.218526         0.808682
 H         3.577972        -3.296852         0.071107
 H         4.622116        -2.212636        -0.915246
 H        -0.380046         0.861533        -0.467770
 H        -0.645135        -0.570613         0.317202
 H         0.025111         0.728078         1.302151
 H         1.979206         1.587107        -1.210393
 H         2.006969         2.060696         0.566332
 H         4.546458        -0.039444         1.361096
 H         1.819256        -0.631964         2.285702
