19
Iteration:  3223
 C         3.777302        -2.538156         0.005304
 C         3.135500        -1.240610         0.222058
 O         2.342186        -0.665808        -0.896312
 C         1.508495         0.246706         0.025787
 C         0.161288         0.184457        -0.683576
 C         2.328425         1.611186         0.096731
 O         3.578938         1.208887         0.643403
 C         3.557137        -0.099123         1.043979
 C         2.093041        -0.600597         1.194416
 H         3.194221        -3.219149        -0.641671
 H         4.616219        -2.353361        -0.592340
 H         4.113348        -2.873393         0.932236
 H         0.445078         0.406551        -1.679752
 H        -0.191600        -0.884677        -0.750229
 H        -0.668348         0.812529        -0.419284
 H         2.548891         1.830218        -0.946715
 H         1.658476         2.470645         0.443451
 H         4.300888        -0.174760         1.870488
 H         1.557428        -0.877108         2.103471
