19
Iteration:  2148charge 0 multiplicity 1
 C         3.985794        -2.359153        -0.253192
 C         3.102673        -1.194602         0.039871
 O         2.366369        -0.663552        -1.025197
 C         1.540059         0.159656        -0.010020
 C         0.100929         0.289032        -0.423181
 C         2.268388         1.500102         0.131069
 O         3.547158         1.239306         0.825958
 C         3.515783        -0.220768         1.087595
 C         2.055271        -0.735907         1.158811
 H         5.025860        -2.123751        -0.011518
 H         3.656042        -3.379313         0.146718
 H         3.846812        -2.391196        -1.362924
 H        -0.353690         1.160876         0.037631
 H        -0.033718         0.295593        -1.505871
 H        -0.397854        -0.628151         0.017833
 H         2.400991         2.037845        -0.786935
 H         1.774331         2.223174         0.777841
 H         4.035511        -0.244887         2.074621
 H         1.649023        -0.835873         2.150719
