19
Iteration:  3193charge 0 multiplicity 1
 C         3.573287        -2.546644         0.008067
 C         3.105341        -1.193049         0.183338
 O         2.439720        -0.586081        -0.998327
 C         1.624188         0.172022        -0.119921
 C         0.189159         0.081179        -0.563377
 C         2.275686         1.539853         0.063872
 O         3.599072         1.327490         0.695354
 C         3.546785        -0.037606         1.114843
 C         2.153967        -0.624816         1.201660
 H         3.003684        -3.194775        -0.680472
 H         4.699698        -2.424791        -0.307424
 H         3.586012        -3.125777         0.957191
 H         0.287425        -0.013822        -1.631628
 H        -0.338744        -0.882613        -0.340003
 H        -0.506023         0.820168        -0.312431
 H         2.609075         1.922328        -0.865305
 H         1.549673         2.100276         0.679765
 H         4.399174        -0.158521         1.845056
 H         1.522330        -0.992571         1.962856
