19
Iteration:   691
 C         3.768923        -2.602686        -0.036582
 C         3.185271        -1.178086         0.181531
 O         2.137671        -0.806579        -0.818686
 C         1.513722         0.159357         0.157516
 C        -0.008589        -0.083713         0.231499
 C         2.209871         1.545210        -0.194937
 O         3.584932         1.338146        -0.001500
 C         3.743040         0.117246         0.722967
 C         2.432769        -0.325382         1.327220
 H         4.182941        -2.915733         0.895088
 H         2.868251        -3.291876        -0.300921
 H         4.478042        -2.764654        -0.847455
 H        -0.594883         0.607985        -0.386556
 H        -0.168137        -1.142428         0.152486
 H        -0.322252         0.152055         1.237366
 H         2.026003         1.911198        -1.176756
 H         1.978481         2.352992         0.452917
 H         4.719971         0.118493         1.112434
 H         2.175357        -0.519110         2.412142
