19
Iteration:  1566charge 0 multiplicity 1
 C         3.962183        -2.399730        -0.056442
 C         3.162015        -1.207013         0.107701
 O         2.127643        -0.857200        -0.879143
 C         1.550729         0.128425         0.161097
 C        -0.044062         0.228269         0.060184
 C         2.193791         1.442868        -0.130143
 O         3.628654         1.289052         0.192978
 C         3.632420         0.005107         0.818681
 C         2.317507        -0.502864         1.251518
 H         3.313050        -3.298347         0.112374
 H         4.456145        -2.503775        -0.976746
 H         4.857224        -2.467699         0.597139
 H        -0.462046         1.204683        -0.104259
 H        -0.405260        -0.642809        -0.491667
 H        -0.390992        -0.135573         1.043158
 H         2.104948         1.804213        -1.144514
 H         1.723897         2.119631         0.668557
 H         4.450477         0.038780         1.499025
 H         2.000665        -0.779439         2.324895
