19
Iteration:  3657
 C         3.722632        -2.531789         0.085127
 C         3.170843        -1.222168         0.137093
 O         2.428334        -0.727007        -0.930078
 C         1.604550         0.114403        -0.132562
 C         0.116824         0.358295        -0.550665
 C         2.244660         1.511657         0.080658
 O         3.623990         1.284472         0.565464
 C         3.504844        -0.040323         1.142621
 C         2.051830        -0.681169         1.119528
 H         2.869107        -3.360647         0.187403
 H         4.300607        -2.645378        -0.847027
 H         4.484628        -2.596010         0.832754
 H         0.064580         1.291247        -1.104187
 H        -0.290169        -0.619865        -1.037126
 H        -0.334100         0.544038         0.454689
 H         2.417658         2.102504        -0.904284
 H         1.733243         2.057314         0.873817
 H         4.394914        -0.159480         1.818306
 H         1.579443        -1.049704         2.091350
