19
Iteration:  4379charge 0 multiplicity 1
 C         3.804075        -2.493245         0.002654
 C         3.117217        -1.208041         0.271280
 O         2.410880        -0.739538        -0.980787
 C         1.640880         0.180819        -0.152726
 C         0.091729         0.228902        -0.479887
 C         2.332723         1.585394        -0.059365
 O         3.629670         1.101570         0.547122
 C         3.443548        -0.071438         1.190892
 C         2.037979        -0.467844         1.229310
 H         3.162178        -3.268277        -0.469856
 H         4.724749        -2.227570        -0.402714
 H         4.089045        -2.976462         0.970209
 H        -0.515736         0.233323         0.434156
 H        -0.119046         1.189328        -0.921212
 H        -0.245734        -0.621964        -1.097097
 H         2.510625         1.837497        -1.116605
 H         1.746060         2.387658         0.403623
 H         4.029085        -0.230587         2.087489
 H         1.406295        -0.583852         2.139548
