19
Iteration:    34
 C         4.006051        -2.294098        -0.078609
 C         2.982069        -1.258705         0.222746
 O         1.998039        -0.889446        -0.754998
 C         1.496364         0.117265         0.117165
 C        -0.074021         0.096468         0.157020
 C         2.372982         1.502900        -0.345391
 O         3.750559         1.288115         0.094273
 C         3.601373         0.002629         0.843564
 C         2.311908        -0.491957         1.365508
 H         4.904740        -2.270535         0.564390
 H         3.603948        -3.313356        -0.029445
 H         4.343759        -2.135415        -1.076430
 H        -0.355767         1.124110         0.338828
 H        -0.370525        -0.243555        -0.827756
 H        -0.464354        -0.534553         0.942717
 H         2.389641         1.537363        -1.430400
 H         2.059173         2.468642         0.034416
 H         4.582768        -0.200096         1.346587
 H         2.004695        -0.321225         2.434183
