19
Iteration:  3943charge 0 multiplicity 1
 C         3.668324        -2.614807         0.329770
 C         3.051829        -1.218286         0.166153
 O         2.523297        -0.600923        -1.051229
 C         1.598881         0.199714        -0.118287
 C         0.019875         0.202234        -0.390051
 C         2.360318         1.543844        -0.036374
 O         3.635001         1.248169         0.503578
 C         3.527140        -0.085010         1.054605
 C         2.115824        -0.595911         1.047579
 H         3.257440        -3.385626        -0.433463
 H         4.646042        -2.584261        -0.022682
 H         3.662327        -2.809013         1.478317
 H        -0.400031        -0.636217        -1.106754
 H        -0.541153         0.165849         0.540614
 H        -0.317086         1.168346        -0.820858
 H         2.512969         1.869199        -1.102808
 H         1.838737         2.242071         0.696645
 H         4.202401        -0.346989         1.943231
 H         1.557782        -0.625388         2.054127
