19
Iteration:  3412charge 0 multiplicity 1
 C         3.808586        -2.543084         0.119647
 C         3.042259        -1.300151         0.123720
 O         2.387859        -0.716117        -1.100824
 C         1.570617         0.199874        -0.093259
 C         0.138346         0.236670        -0.528907
 C         2.319124         1.645290         0.057172
 O         3.580695         1.292154         0.758595
 C         3.514224        -0.166678         1.030552
 C         2.103233        -0.594712         1.158006
 H         3.319358        -3.331513        -0.308932
 H         4.756421        -2.436722        -0.480554
 H         4.193272        -2.808997         1.138898
 H        -0.048988         0.436909        -1.637449
 H        -0.299412        -0.727369        -0.302502
 H        -0.383192         0.912811         0.154163
 H         2.540832         2.216586        -0.842493
 H         1.749526         2.378788         0.650267
 H         4.323169        -0.183486         1.750725
 H         1.442880        -0.810082         2.065398
