19
Iteration:  2718
 C         3.969662        -2.372493        -0.146173
 C         3.058966        -1.236646         0.138779
 O         2.378974        -0.633421        -0.993686
 C         1.583075         0.199058        -0.079718
 C         0.147009         0.211010        -0.470396
 C         2.366341         1.514993         0.073976
 O         3.522358         1.208664         0.719137
 C         3.445272        -0.180961         1.186911
 C         2.016985        -0.624734         1.131459
 H         3.355907        -3.269177        -0.275488
 H         4.582921        -2.104228        -0.965881
 H         4.443664        -2.619242         0.761230
 H        -0.265823         1.203374        -0.183360
 H         0.027865         0.049964        -1.602183
 H        -0.388215        -0.580191         0.076070
 H         2.486804         1.926237        -0.941883
 H         1.859581         2.307960         0.742956
 H         4.157678        -0.714626         1.852926
 H         1.317098        -0.934007         2.031252
