19
Iteration:  4644charge 0 multiplicity 1
 C         3.582647        -2.586086        -0.044111
 C         3.114973        -1.156236         0.129452
 O         2.550021        -0.482318        -0.968849
 C         1.657014         0.225390        -0.118155
 C         0.212547         0.000267        -0.493288
 C         2.247260         1.579794         0.163926
 O         3.551874         1.266414         0.689345
 C         3.519447        -0.112011         1.096161
 C         2.102699        -0.580985         1.082525
 H         2.605381        -3.252572         0.032458
 H         3.898160        -2.819505        -1.063912
 H         4.242410        -2.958158         0.726139
 H        -0.482739        -0.570300         0.127937
 H        -0.244481         1.006799        -0.653209
 H         0.198304        -0.673572        -1.322060
 H         2.655046         2.152172        -0.687392
 H         1.654051         2.138858         0.874348
 H         4.145443        -0.348841         1.914835
 H         1.518333        -1.054644         1.843569
