19
Iteration:  1171
 C         3.960437        -2.524260         0.155672
 C         3.100096        -1.255314         0.183859
 O         2.105160        -0.881195        -0.932242
 C         1.549762         0.153080         0.078002
 C         0.014185         0.123916         0.289342
 C         2.174543         1.524838        -0.231868
 O         3.584152         1.244815        -0.010924
 C         3.663777         0.110617         0.752819
 C         2.382643        -0.346562         1.222283
 H         5.015683        -2.364512         0.432844
 H         3.664179        -3.338448         0.847701
 H         4.036899        -2.938316        -0.833572
 H        -0.577809         0.065971        -0.623003
 H        -0.382000        -0.716157         0.900866
 H        -0.172110         0.959105         0.926437
 H         2.029169         1.855502        -1.286675
 H         1.867655         2.334818         0.540394
 H         4.369609         0.089088         1.565821
 H         2.015728        -0.611681         2.306403
