19
Iteration:  3534
 C         3.568004        -2.641043         0.088645
 C         3.168221        -1.157224         0.140357
 O         2.501727        -0.541116        -1.004108
 C         1.630573         0.175514        -0.071500
 C         0.144616         0.189322        -0.551705
 C         2.232745         1.510531         0.149270
 O         3.583678         1.264710         0.503126
 C         3.547600        -0.022980         1.123723
 C         2.158026        -0.648272         1.150774
 H         2.818905        -3.307963        -0.288442
 H         4.615793        -2.905955        -0.189680
 H         3.676415        -3.037519         1.114124
 H         0.122209         0.332070        -1.674599
 H        -0.272172        -0.788151        -0.299138
 H        -0.517575         0.970279        -0.049199
 H         2.174427         2.264140        -0.688754
 H         1.684909         1.959159         0.982260
 H         4.320511        -0.224780         1.865643
 H         1.670974        -1.106237         1.997279
