19
Iteration:  4272
 C         3.515999        -2.621451        -0.013660
 C         3.024875        -1.204135         0.284841
 O         2.565417        -0.529156        -0.887422
 C         1.662456         0.218877        -0.083386
 C         0.203928        -0.014131        -0.529473
 C         2.281882         1.535642        -0.055828
 O         3.608867         1.224154         0.509972
 C         3.563143        -0.016900         1.177148
 C         2.088146        -0.458034         1.208324
 H         2.688344        -3.393941        -0.142614
 H         3.737407        -2.629120        -1.064509
 H         4.349259        -2.977450         0.572399
 H        -0.312963        -0.258791         0.367717
 H        -0.334806         0.906638        -1.034440
 H         0.019148        -0.834823        -1.259815
 H         2.434320         1.820284        -1.102660
 H         1.753366         2.269742         0.647138
 H         4.179102        -0.257058         2.076059
 H         1.673482        -0.441930         2.245068
