19
Iteration:  4368charge 0 multiplicity 1
 C         3.869400        -2.516803         0.120092
 C         3.130251        -1.234438         0.266373
 O         2.415975        -0.748615        -0.989158
 C         1.519910         0.176928        -0.157763
 C         0.032514         0.312811        -0.439492
 C         2.323950         1.490584        -0.106916
 O         3.659393         1.202845         0.580161
 C         3.504511        -0.119082         1.173527
 C         2.008179        -0.481203         1.105493
 H         3.331294        -3.164687        -0.603376
 H         4.771834        -2.393762        -0.403482
 H         4.040174        -2.961236         1.124890
 H        -0.515591         0.152997         0.498210
 H        -0.201803         1.295876        -0.818343
 H        -0.342036        -0.334701        -1.247387
 H         2.606468         2.113201        -0.957221
 H         1.849432         2.110164         0.658241
 H         4.283184        -0.320947         1.900712
 H         1.358440        -0.722867         1.970444
