19
Iteration:  1082
 C         3.620127        -2.569090         0.087468
 C         3.100430        -1.188340         0.203663
 O         2.250679        -0.770810        -0.844331
 C         1.580745         0.193562         0.103666
 C         0.109556        -0.113622         0.307928
 C         2.091446         1.519921        -0.195211
 O         3.614261         1.251580        -0.120645
 C         3.747778         0.176308         0.727322
 C         2.466313        -0.307555         1.273016
 H         3.899915        -2.911318         1.042828
 H         2.793065        -3.272434        -0.264961
 H         4.526429        -2.519063        -0.500520
 H        -0.511686        -0.035135        -0.593745
 H         0.085506        -1.176483         0.624515
 H        -0.367389         0.415746         1.130064
 H         1.850503         1.923202        -1.221054
 H         1.856505         2.232437         0.660464
 H         4.589404         0.048223         1.378997
 H         1.894703        -0.334136         2.178762
