19
Iteration:   960
 C         3.743812        -2.498257         0.078028
 C         3.003962        -1.226656         0.178079
 O         2.123518        -0.727675        -0.866663
 C         1.573304         0.275184         0.181255
 C         0.114338        -0.150916         0.164811
 C         2.221272         1.617878        -0.207267
 O         3.610398         1.254247        -0.022140
 C         3.750526         0.016832         0.760061
 C         2.408861        -0.328862         1.356385
 H         4.831967        -2.460187         0.305348
 H         3.235505        -3.324751         0.609190
 H         3.656920        -2.642052        -1.038119
 H        -0.215249        -0.520917        -0.830287
 H         0.146310        -1.132348         0.629129
 H        -0.679126         0.423084         0.724114
 H         1.918441         1.717759        -1.282499
 H         1.824155         2.425172         0.422365
 H         4.734233        -0.023716         1.368998
 H         2.055817        -0.746762         2.276293
