19
Iteration:   868charge 0 multiplicity 1
 C         3.830943        -2.468010         0.016055
 C         3.071615        -1.188563         0.170171
 O         2.091169        -0.867277        -0.720155
 C         1.527794         0.141387         0.164233
 C        -0.088267         0.055152         0.211675
 C         2.222660         1.458394        -0.252247
 O         3.606309         1.308483         0.002901
 C         3.785378         0.086289         0.683534
 C         2.468398        -0.373811         1.282301
 H         4.045353        -3.091732         0.953891
 H         3.175182        -3.141802        -0.582842
 H         4.817021        -2.215136        -0.459404
 H        -0.551449         0.626531        -0.599687
 H        -0.409062        -1.016347         0.088286
 H        -0.273312         0.405386         1.203729
 H         2.123744         1.717188        -1.293412
 H         1.960146         2.325665         0.433222
 H         4.799703        -0.023736         1.195114
 H         2.370863        -0.582796         2.330366
