19
Iteration:   231charge 0 multiplicity 1
 C         4.055291        -2.353751        -0.090701
 C         3.085474        -1.283283         0.232517
 O         2.071438        -0.954522        -0.820220
 C         1.515415         0.144671         0.117827
 C         0.005181         0.303758         0.214134
 C         2.192703         1.488642        -0.245911
 O         3.551722         1.223221         0.064178
 C         3.657103        -0.012591         0.796337
 C         2.360123        -0.465687         1.327701
 H         4.981635        -2.195208         0.551428
 H         3.747125        -3.438270        -0.074564
 H         4.327745        -2.125190        -1.077562
 H        -0.398792         0.358563        -0.771952
 H        -0.504164        -0.492240         0.751039
 H        -0.067523         1.190862         0.825999
 H         2.118339         1.721959        -1.320405
 H         1.815538         2.329425         0.393568
 H         4.511481         0.053033         1.389058
 H         2.077690        -0.983209         2.310556
