19
Iteration:  2827charge 0 multiplicity 1
 C         3.661468        -2.534263        -0.087110
 C         3.017886        -1.144548         0.148668
 O         2.432978        -0.500474        -1.018114
 C         1.608080         0.243197         0.020196
 C         0.218010        -0.021305        -0.525986
 C         2.301505         1.518055         0.109232
 O         3.615322         1.210512         0.586312
 C         3.529497        -0.062223         1.137379
 C         2.111548        -0.563376         1.238096
 H         3.109302        -3.285739        -0.746687
 H         4.695904        -2.525676        -0.423398
 H         3.786076        -2.942329         0.919573
 H        -0.000831        -1.102382        -0.548120
 H        -0.551340         0.518110         0.054641
 H         0.207742         0.218678        -1.624049
 H         2.382342         2.004433        -0.850047
 H         1.892065         2.304768         0.758186
 H         4.079226        -0.474841         1.980798
 H         1.304228        -0.698580         2.020489
