19
Iteration:  1204charge 0 multiplicity 1
 C         3.923908        -2.354664         0.016940
 C         3.057250        -1.223665         0.257703
 O         2.191297        -0.930617        -0.801615
 C         1.551911         0.106764         0.178154
 C        -0.025897         0.194653         0.261808
 C         2.213214         1.389866        -0.349648
 O         3.604252         1.199419        -0.037921
 C         3.686262         0.124473         0.776712
 C         2.340616        -0.399194         1.290096
 H         4.912143        -2.189588         0.499140
 H         3.451337        -3.315648         0.322250
 H         4.055258        -2.346945        -1.060279
 H        -0.412112         0.994717        -0.341135
 H        -0.517325        -0.791451         0.176477
 H        -0.334950         0.596347         1.190082
 H         2.064081         1.333066        -1.441997
 H         1.761680         2.370427         0.061548
 H         4.388729         0.319090         1.597329
 H         1.981724        -0.748251         2.347439
