19
Iteration:  1493
 C         3.502468        -2.616408         0.016169
 C         3.179916        -1.151190         0.176113
 O         2.272924        -0.777263        -0.845908
 C         1.525842         0.164288         0.070175
 C         0.088676        -0.086911         0.087408
 C         2.101790         1.461418        -0.147563
 O         3.568168         1.441129         0.062821
 C         3.792220         0.176757         0.782942
 C         2.535734        -0.447335         1.367657
 H         3.506921        -2.920352        -1.022427
 H         4.569267        -2.813998         0.488657
 H         2.866124        -3.360152         0.589025
 H        -0.382911        -0.059827         1.089229
 H        -0.424453         0.607049        -0.630497
 H        -0.008163        -1.032856        -0.429609
 H         1.932221         2.033680        -1.076840
 H         1.774022         2.094940         0.680723
 H         4.735626         0.197825         1.259709
 H         2.304699        -0.772503         2.446606
