19
Iteration:  3352charge 0 multiplicity 1
 C         3.620955        -2.670465        -0.082479
 C         3.122163        -1.231969         0.257009
 O         2.583528        -0.556795        -0.880796
 C         1.572234         0.197358        -0.098780
 C         0.194099         0.134106        -0.589465
 C         2.203306         1.553088         0.054657
 O         3.545662         1.267165         0.555904
 C         3.554283        -0.064640         1.126712
 C         2.127334        -0.522529         1.225076
 H         2.764166        -3.173039        -0.670440
 H         4.536641        -2.513380        -0.595152
 H         3.724088        -3.302780         0.788137
 H         0.130685         0.211575        -1.678534
 H        -0.055435        -0.898839        -0.188212
 H        -0.428363         0.928309        -0.070432
 H         2.142055         2.009970        -0.971509
 H         1.819959         2.188056         0.823084
 H         4.101478        -0.177538         2.113735
 H         1.524389        -0.777523         2.054241
