19
Iteration:  4316charge 0 multiplicity 1
 C         3.702591        -2.581790         0.198500
 C         3.145057        -1.246817         0.174147
 O         2.411437        -0.641723        -1.007763
 C         1.556025         0.166201        -0.099135
 C         0.052296         0.252100        -0.524675
 C         2.308689         1.504648         0.028923
 O         3.645793         1.270047         0.587891
 C         3.560221        -0.049209         1.010584
 C         2.114267        -0.563290         1.163084
 H         3.007841        -3.428795        -0.079287
 H         4.633801        -2.627217        -0.351240
 H         3.919218        -2.698862         1.245269
 H        -0.478012        -0.226002         0.236858
 H        -0.308201         1.286765        -0.845451
 H        -0.182069        -0.418952        -1.371129
 H         2.533316         1.888775        -0.953692
 H         1.787500         2.200808         0.680308
 H         4.288415        -0.128532         1.805597
 H         1.666585        -1.086283         2.045889
