19
Iteration:  3858charge 0 multiplicity 1
 C         3.599757        -2.509357         0.058249
 C         2.982645        -1.193412         0.231278
 O         2.430433        -0.690252        -0.941134
 C         1.634702         0.189342         0.018961
 C         0.187948         0.106268        -0.518417
 C         2.380095         1.549055        -0.091785
 O         3.674041         1.204216         0.499998
 C         3.494106         0.038757         1.136333
 C         2.075250        -0.551457         1.212436
 H         2.961755        -3.411378         0.201099
 H         3.948406        -2.536774        -0.982115
 H         4.494807        -2.704179         0.714720
 H        -0.261818        -0.915007        -0.354095
 H        -0.511115         0.692154         0.040478
 H         0.332900         0.440313        -1.557915
 H         2.425183         1.836637        -1.123319
 H         1.976546         2.456785         0.385548
 H         4.084090        -0.113914         2.090870
 H         1.676322        -0.923516         2.195885
