19
Iteration:  2396
 C         3.534266        -2.621996        -0.319388
 C         3.352033        -1.155203         0.090348
 O         2.583343        -0.483016        -0.955021
 C         1.630312         0.135663        -0.064765
 C         0.246597         0.138618        -0.611167
 C         2.072553         1.498309         0.334923
 O         3.475402         1.329144         0.678589
 C         3.512975        -0.105246         1.208558
 C         2.185632        -0.686848         1.213331
 H         2.648707        -3.180371        -0.231656
 H         3.913235        -2.574007        -1.381079
 H         4.386419        -2.988287         0.257023
 H        -0.106017         1.201557        -0.642703
 H         0.109346        -0.312065        -1.615302
 H        -0.437904        -0.336365         0.236472
 H         1.835584         2.169540        -0.568837
 H         1.586839         1.802573         1.239275
 H         4.230411        -0.185782         1.934560
 H         1.543037        -0.973168         2.095171
