19
Iteration:   702charge 0 multiplicity 1
 C         3.646821        -2.574339         0.004542
 C         3.105448        -1.179996         0.213598
 O         2.230316        -0.714894        -0.807897
 C         1.551241         0.135602         0.093414
 C         0.032407        -0.149938         0.308827
 C         2.140683         1.580128        -0.156105
 O         3.647580         1.327920        -0.087917
 C         3.763743         0.128785         0.757092
 C         2.445352        -0.373068         1.252248
 H         4.297202        -2.950198         0.757064
 H         2.802401        -3.357059        -0.147758
 H         4.254185        -2.449102        -0.896027
 H        -0.534196         0.221864        -0.545881
 H        -0.140512        -1.197587         0.114004
 H        -0.354040         0.162581         1.256538
 H         2.019699         1.877275        -1.164754
 H         1.731432         2.246358         0.554077
 H         4.513348         0.002470         1.494529
 H         2.187622        -0.568871         2.323695
