19
Iteration:  1407
 C         3.944191        -2.458362         0.043704
 C         3.097858        -1.251988         0.240740
 O         2.105525        -0.859786        -0.822739
 C         1.467600         0.180146         0.068836
 C         0.003589         0.110137         0.187286
 C         2.233453         1.516333        -0.211132
 O         3.607120         1.225290        -0.032732
 C         3.680592         0.066494         0.786303
 C         2.340312        -0.444542         1.313808
 H         4.895845        -2.040576         0.005842
 H         3.953866        -3.173563         0.923852
 H         3.755960        -2.698878        -0.986380
 H        -0.396439        -0.891088        -0.159331
 H        -0.075713         0.219493         1.321512
 H        -0.469365         0.946309        -0.373853
 H         2.133908         1.674569        -1.322529
 H         1.990983         2.339561         0.527383
 H         4.626148         0.318947         1.282041
 H         2.009089        -0.577893         2.411713
