19
Iteration:  3114charge 0 multiplicity 1
 C         3.783293        -2.474751         0.066502
 C         3.052267        -1.229841         0.161092
 O         2.286596        -0.707959        -0.988438
 C         1.572427         0.179072        -0.056099
 C         0.189135         0.199973        -0.690974
 C         2.355011         1.511230         0.089199
 O         3.599878         1.280033         0.725407
 C         3.533459        -0.074641         1.090307
 C         2.123240        -0.591107         1.163446
 H         3.022286        -3.376963        -0.062125
 H         4.530322        -2.531524        -0.767317
 H         4.359163        -2.736892         0.962830
 H        -0.004686         1.139064        -1.101031
 H         0.058097        -0.684393        -1.326240
 H        -0.545667         0.124932         0.070601
 H         2.569076         1.969894        -0.848664
 H         1.719227         2.300701         0.614371
 H         4.318410        -0.135494         1.799604
 H         1.530654        -0.868637         2.106201
