19
Iteration:  4002
 C         3.727215        -2.583716        -0.030049
 C         3.085753        -1.227260         0.340693
 O         2.455703        -0.732845        -0.849982
 C         1.561116         0.181993        -0.079784
 C         0.096164         0.246983        -0.584514
 C         2.365231         1.515526        -0.081324
 O         3.615905         1.273112         0.523545
 C         3.526526        -0.055743         1.138567
 C         2.057037        -0.497661         1.305168
 H         3.039700        -3.396267        -0.087294
 H         4.385204        -2.251873        -0.901018
 H         4.439648        -2.987899         0.651276
 H        -0.561429        -0.536507        -0.385502
 H        -0.355247         1.256856        -0.189760
 H         0.193666         0.350102        -1.705340
 H         2.425393         1.729608        -1.151251
 H         1.752205         2.396006         0.291145
 H         4.176409        -0.482330         1.882751
 H         1.384168        -1.089321         1.841843
