19
Iteration:  3886
 C         3.575102        -2.712208         0.084546
 C         3.087483        -1.218468         0.216056
 O         2.450867        -0.683648        -0.882201
 C         1.657121         0.231852        -0.040415
 C         0.081133         0.105188        -0.624031
 C         2.271376         1.576004        -0.058462
 O         3.616042         1.275606         0.538095
 C         3.622359        -0.047076         1.075875
 C         2.159238        -0.370015         1.277677
 H         2.695769        -3.383129        -0.120973
 H         4.313028        -2.708861        -0.775586
 H         4.066852        -3.211870         0.931547
 H        -0.049455        -0.937711        -1.050114
 H        -0.647924         0.172748         0.224006
 H        -0.209381         0.813917        -1.399536
 H         2.442914         2.117287        -1.047762
 H         1.805784         2.335514         0.632375
 H         4.375530        -0.195650         1.846126
 H         1.746870        -0.657486         2.210850
