19
Iteration:  2553charge 0 multiplicity 1
 C         3.820051        -2.445062        -0.272515
 C         3.085914        -1.160401         0.066453
 O         2.403427        -0.574966        -1.006057
 C         1.552701         0.166186        -0.044901
 C         0.142041         0.107852        -0.588383
 C         2.305710         1.582985         0.229126
 O         3.607318         1.265694         0.790147
 C         3.461703        -0.130724         1.200048
 C         2.083513        -0.685396         1.200198
 H         3.278922        -3.396757        -0.354095
 H         4.303719        -2.172289        -1.184510
 H         4.621605        -2.705173         0.416536
 H        -0.262381        -0.851129        -0.117202
 H        -0.633866         0.916134        -0.361441
 H         0.312375        -0.063774        -1.637475
 H         2.481023         2.273866        -0.584159
 H         1.683511         2.046783         0.992693
 H         4.123583        -0.633659         1.937930
 H         1.548962        -1.089895         1.990545
