19
Iteration:  1352
 C         3.760753        -2.571937         0.083744
 C         3.143213        -1.228211         0.225796
 O         2.090226        -0.871333        -0.691859
 C         1.551646         0.121864         0.164408
 C         0.068745         0.065265         0.125433
 C         2.111319         1.442295        -0.282204
 O         3.580404         1.441269         0.027494
 C         3.735827         0.105942         0.686690
 C         2.564995        -0.392092         1.299056
 H         4.593242        -2.646794         0.706656
 H         2.961306        -3.371533         0.117554
 H         4.091819        -2.554101        -0.968084
 H        -0.095742         0.107032        -0.991977
 H        -0.412908        -0.932735         0.338673
 H        -0.484770         0.874650         0.658753
 H         2.005724         1.602019        -1.398780
 H         1.619487         2.365901         0.170469
 H         4.679519         0.242673         1.187619
 H         2.120865        -0.728834         2.284720
