19
Iteration:   978
 C         3.790800        -2.513555        -0.068796
 C         3.125248        -1.179001         0.217600
 O         2.168240        -0.788561        -0.728256
 C         1.531640         0.129154         0.169740
 C         0.009524        -0.002460         0.148860
 C         2.197098         1.469433        -0.261875
 O         3.620062         1.261695         0.018794
 C         3.723220         0.108719         0.754007
 C         2.377847        -0.353435         1.343180
 H         4.846507        -2.397165         0.382102
 H         3.370005        -3.356646         0.437356
 H         3.722068        -2.859666        -1.126203
 H        -0.403873         0.250901        -0.819489
 H        -0.411127        -1.020648         0.330023
 H        -0.458577         0.677791         0.869353
 H         2.081359         1.663958        -1.328159
 H         1.805670         2.375234         0.363934
 H         4.594219        -0.020727         1.265664
 H         2.222679        -0.197210         2.449316
