19
Iteration:  1547charge 0 multiplicity 1
 C         3.891286        -2.410950        -0.013411
 C         2.999356        -1.246912         0.199417
 O         2.180563        -0.754421        -0.894037
 C         1.501716         0.144292         0.049636
 C         0.045552         0.026574         0.147387
 C         2.197675         1.580189        -0.078515
 O         3.601355         1.268741         0.089161
 C         3.710077        -0.018088         0.854874
 C         2.360682        -0.482297         1.244296
 H         3.360656        -3.281887        -0.355493
 H         4.812433        -2.177035        -0.685019
 H         4.228260        -2.696137         1.035271
 H        -0.348610         1.036862         0.095194
 H        -0.383100        -0.426625        -0.747959
 H        -0.347919        -0.515369         0.972850
 H         2.134239         1.825911        -1.153410
 H         1.996056         2.430691         0.552599
 H         4.690572        -0.146808         1.223030
 H         1.911966        -0.800520         2.198227
