19
Iteration:   867charge 0 multiplicity 1
 C         3.837683        -2.455672         0.013073
 C         3.068706        -1.194478         0.179317
 O         2.089349        -0.868741        -0.718895
 C         1.520971         0.143423         0.154989
 C        -0.091730         0.055828         0.217513
 C         2.229336         1.459506        -0.256198
 O         3.617288         1.308697        -0.001840
 C         3.774931         0.079098         0.678793
 C         2.471068        -0.376368         1.294184
 H         4.050313        -3.042624         0.939019
 H         3.184601        -3.157873        -0.624813
 H         4.809747        -2.185202        -0.450107
 H        -0.588792         0.610904        -0.600474
 H        -0.414040        -1.012364         0.070718
 H        -0.256924         0.383381         1.212666
 H         2.121613         1.722124        -1.309839
 H         1.956052         2.350209         0.444077
 H         4.804176        -0.061363         1.244551
 H         2.336104        -0.590108         2.327806
