19
Iteration:  2330
 C         3.967837        -2.388068        -0.180714
 C         3.045574        -1.169762        -0.006925
 O         2.428958        -0.543261        -1.115410
 C         1.570277         0.225591        -0.055703
 C         0.092241         0.216474        -0.378693
 C         2.314402         1.558574         0.157328
 O         3.555513         1.164753         0.909292
 C         3.444285        -0.229644         1.179138
 C         2.001818        -0.761276         1.039646
 H         3.723611        -3.312084        -0.619864
 H         4.676506        -1.929630        -0.927520
 H         4.578226        -2.538948         0.717484
 H        -0.178929         0.523705        -1.410728
 H        -0.291524        -0.802393        -0.178900
 H        -0.335116         0.974409         0.357707
 H         2.734328         1.892596        -0.862614
 H         1.767657         2.422785         0.595318
 H         3.996124        -0.780261         1.934566
 H         1.384748        -1.223076         1.766300
