19
Iteration:   882
 C         3.736727        -2.615006         0.057710
 C         3.236474        -1.168687         0.153845
 O         2.082343        -0.845560        -0.829828
 C         1.525911         0.130833         0.212035
 C         0.078958         0.087982         0.207113
 C         2.101220         1.473258        -0.180171
 O         3.530732         1.345801         0.011753
 C         3.801539         0.151320         0.673702
 C         2.543874        -0.401660         1.303832
 H         3.887238        -3.004520         1.120389
 H         3.026108        -3.170757        -0.467535
 H         4.649045        -2.775066        -0.561843
 H        -0.231926         0.545154        -0.748215
 H        -0.302184        -0.923241         0.125496
 H        -0.527156         0.615069         0.980522
 H         1.870588         1.601043        -1.239454
 H         1.635346         2.262346         0.335879
 H         4.710625         0.133645         1.139659
 H         2.223411        -0.588429         2.369385
