19
Iteration:  1643charge 0 multiplicity 1
 C         3.700643        -2.478366        -0.061363
 C         3.096040        -1.109289         0.079107
 O         2.289135        -0.672387        -0.925187
 C         1.546830         0.208170         0.020481
 C         0.013145        -0.126437         0.050919
 C         2.217156         1.590402         0.006987
 O         3.670426         1.302946         0.254555
 C         3.704512        -0.007427         0.932585
 C         2.262583        -0.536264         1.180254
 H         4.608080        -2.594093         0.535905
 H         3.104156        -3.330974         0.166499
 H         4.052121        -2.604277        -1.115493
 H        -0.298776        -0.670043        -0.843170
 H        -0.133753        -0.869633         0.882914
 H        -0.690923         0.688874         0.263652
 H         2.366886         1.976462        -1.006943
 H         1.762412         2.414123         0.641740
 H         4.505251        -0.073437         1.640650
 H         1.930662        -0.913162         2.158874
