19
Iteration:  5000
 C         3.769611        -2.490315        -0.113956
 C         3.119333        -1.105711        -0.042087
 O         2.507960        -0.429847        -1.067043
 C         1.636419         0.208611        -0.090112
 C         0.139135         0.144455        -0.517581
 C         2.183020         1.523664         0.382973
 O         3.523039         1.197089         0.872014
 C         3.506474        -0.176927         1.037926
 C         2.125295        -0.760519         1.062498
 H         2.853787        -3.138771        -0.427852
 H         4.531325        -2.811198        -0.868409
 H         4.216826        -2.626906         0.870630
 H        -0.537654         0.881892        -0.091326
 H         0.260940         0.498739        -1.549304
 H        -0.277578        -0.826550        -0.379549
 H         2.266871         2.377115        -0.338875
 H         1.622148         2.013585         1.204597
 H         4.304549        -0.558682         1.693881
 H         1.565228        -1.601205         1.492047
