19
Iteration:   749
 C         3.513598        -2.625894         0.127562
 C         3.147207        -1.139909         0.111097
 O         2.185756        -0.716248        -0.888032
 C         1.518819         0.179246         0.187279
 C         0.053980        -0.207208         0.175888
 C         2.103489         1.565013        -0.072310
 O         3.647465         1.428081         0.065182
 C         3.878188         0.133922         0.630983
 C         2.509236        -0.421465         1.161589
 H         4.514327        -2.780877         0.629849
 H         2.828736        -3.196473         0.741632
 H         3.630421        -3.107452        -0.881986
 H        -0.264879        -0.594588        -0.808644
 H        -0.065993        -1.222497         0.709075
 H        -0.537964         0.546232         0.712962
 H         1.893354         1.984850        -1.071438
 H         1.972379         2.284211         0.737828
 H         4.711796         0.105088         1.448666
 H         2.341508        -0.604530         2.174966
