19
Iteration:   718charge 0 multiplicity 1
 C         3.505234        -2.512805         0.034303
 C         3.090783        -1.119084         0.190489
 O         2.329726        -0.668804        -0.940724
 C         1.576037         0.194050         0.169034
 C         0.188750        -0.223172         0.273688
 C         2.124834         1.503154        -0.119940
 O         3.568893         1.235466        -0.087109
 C         3.761220         0.135017         0.781150
 C         2.401253        -0.376639         1.269726
 H         4.362011        -2.694421         0.766054
 H         2.700990        -3.172104         0.162322
 H         3.786448        -2.764668        -1.018493
 H        -0.482186        -0.072305        -0.633591
 H         0.165103        -1.325662         0.618080
 H        -0.176424         0.344036         1.195262
 H         1.794515         1.991563        -1.101470
 H         2.004316         2.338848         0.697390
 H         4.693232         0.330846         1.429365
 H         2.048046        -0.649790         2.238618
