19
Iteration:  1513charge 0 multiplicity 1
 C         3.667264        -2.539080         0.020612
 C         3.192659        -1.188442         0.182610
 O         2.220851        -0.719755        -0.849487
 C         1.550795         0.132303         0.139615
 C         0.011237        -0.159677         0.101973
 C         2.198729         1.609268        -0.069172
 O         3.596085         1.298855         0.040945
 C         3.755014         0.123529         0.804805
 C         2.385106        -0.383613         1.211653
 H         3.177419        -2.902656        -0.904247
 H         4.753023        -2.821141         0.039175
 H         3.202562        -3.169974         0.855357
 H        -0.384921         0.445764         0.911391
 H        -0.349544         0.180310        -0.865497
 H        -0.215998        -1.210810         0.228499
 H         2.025757         1.856931        -1.118712
 H         1.845963         2.479959         0.517987
 H         4.653607         0.066265         1.388731
 H         2.141876        -0.721493         2.278865
