19
Iteration:  4551charge 0 multiplicity 1
 C         3.904613        -2.454677        -0.165508
 C         3.096208        -1.206219         0.252587
 O         2.387585        -0.761807        -0.905220
 C         1.566811         0.229317        -0.102596
 C         0.105830         0.271548        -0.542216
 C         2.377920         1.527308        -0.002230
 O         3.641995         1.235061         0.643285
 C         3.394226        -0.141316         1.238312
 C         1.984536        -0.602480         1.233696
 H         3.260021        -2.856409        -0.908144
 H         4.861795        -2.227666        -0.757259
 H         4.007489        -3.256066         0.662297
 H         0.040633        -0.156046        -1.610417
 H        -0.396907        -0.213309         0.257993
 H        -0.299567         1.286763        -0.898196
 H         2.620349         1.766163        -1.023535
 H         1.807078         2.274101         0.504854
 H         4.116852        -0.372643         1.989262
 H         1.396802        -0.709441         2.158551
