19
Iteration:  4947charge 0 multiplicity 1
 C         3.928303        -2.384406        -0.395197
 C         3.088143        -1.236504         0.133098
 O         2.501719        -0.646039        -0.983983
 C         1.608394         0.203838        -0.091339
 C         0.101407         0.210772        -0.492165
 C         2.318816         1.522114         0.131936
 O         3.574898         1.249640         0.826988
 C         3.376931        -0.185332         1.320048
 C         1.943814        -0.710652         1.157342
 H         3.441087        -2.780592        -1.426821
 H         4.761010        -1.766172        -0.815906
 H         4.241661        -3.201143         0.286547
 H        -0.409006         0.008807         0.451770
 H        -0.293192         1.362980        -0.676603
 H        -0.112466        -0.369546        -1.379304
 H         2.553294         1.931859        -0.878927
 H         1.799065         2.176669         0.792159
 H         4.106066        -0.614749         2.037084
 H         1.347026        -0.854997         2.087082
