19
Iteration:   243
 C         4.080313        -2.259555        -0.055670
 C         3.051820        -1.202168         0.157083
 O         2.062733        -0.922225        -0.802541
 C         1.498257         0.054879         0.024676
 C         0.004771         0.343805         0.265787
 C         2.169709         1.372627        -0.229094
 O         3.616813         1.140433         0.034801
 C         3.668991         0.054665         0.870445
 C         2.353616        -0.519221         1.255994
 H         4.908748        -2.129005         0.679681
 H         3.660961        -3.309548         0.089906
 H         4.495129        -2.196363        -1.006591
 H        -0.551473         0.817740        -0.482918
 H        -0.433139        -0.551168         0.662486
 H        -0.103571         1.100446         1.001957
 H         2.112849         1.821631        -1.224480
 H         1.714890         2.103660         0.470505
 H         4.515329        -0.177534         1.410397
 H         1.916382        -0.535995         2.308849
