19
Iteration:   286charge 0 multiplicity 1
 C         3.878706        -2.531757         0.028619
 C         3.132416        -1.285530         0.166859
 O         2.114025        -0.786432        -0.787467
 C         1.538472         0.212376         0.124473
 C         0.024902         0.102977         0.209002
 C         2.166359         1.458189        -0.230839
 O         3.516906         1.308189         0.039670
 C         3.764765         0.079404         0.727536
 C         2.434058        -0.463951         1.264477
 H         4.306360        -2.653015         1.072182
 H         3.159406        -3.409398        -0.086899
 H         4.610527        -2.404351        -0.696823
 H        -0.569549         0.925774        -0.165899
 H        -0.339836        -0.826282        -0.240769
 H        -0.278790         0.088824         1.259886
 H         2.001305         1.668936        -1.291069
 H         1.818034         2.368662         0.350336
 H         4.772351         0.026724         1.013827
 H         2.191015        -0.403419         2.367655
