19
Iteration:  1491charge 0 multiplicity 1
 C         3.508214        -2.609041         0.016766
 C         3.181069        -1.179613         0.181353
 O         2.268231        -0.773365        -0.849239
 C         1.520824         0.149116         0.072573
 C         0.098248        -0.082955         0.089432
 C         2.113779         1.450517        -0.141708
 O         3.553893         1.445963         0.069819
 C         3.792718         0.186312         0.779336
 C         2.524554        -0.425501         1.350435
 H         3.561212        -2.951057        -1.054453
 H         4.490429        -2.850709         0.542187
 H         2.803682        -3.332014         0.581663
 H        -0.316122        -0.104796         1.079644
 H        -0.320248         0.672425        -0.586602
 H        -0.019614        -1.000323        -0.483623
 H         1.902056         2.001090        -1.048222
 H         1.732214         2.128055         0.653523
 H         4.790599         0.183864         1.228857
 H         2.398198        -0.770898         2.479580
