19
Iteration:  2326
 C         3.984575        -2.366635        -0.212488
 C         3.028682        -1.224238        -0.017739
 O         2.430759        -0.546772        -1.089222
 C         1.583525         0.196027        -0.083019
 C         0.067598         0.246173        -0.372091
 C         2.329244         1.582807         0.132545
 O         3.534963         1.179383         0.903505
 C         3.441118        -0.221423         1.222665
 C         2.022563        -0.757462         1.045033
 H         3.569231        -3.325424        -0.688078
 H         4.758707        -1.881184        -0.786139
 H         4.571581        -2.634075         0.663466
 H        -0.167241         0.487151        -1.439909
 H        -0.363189        -0.748909        -0.105413
 H        -0.286730         1.017724         0.281293
 H         2.849765         1.851363        -0.776593
 H         1.631138         2.292369         0.622158
 H         4.176307        -0.756555         1.980186
 H         1.364974        -1.291898         1.763746
