19
Iteration:  1300charge 0 multiplicity 1
 C         3.735148        -2.587645         0.315193
 C         3.072408        -1.153973         0.174235
 O         2.304905        -0.709831        -1.014123
 C         1.486590         0.191122         0.074132
 C         0.097918        -0.077069         0.365758
 C         2.162727         1.516243        -0.173090
 O         3.561321         1.279322        -0.187645
 C         3.701726         0.139574         0.727753
 C         2.444762        -0.435660         1.269769
 H         3.709966        -2.788580         1.430673
 H         3.034728        -3.341681        -0.313454
 H         4.733857        -2.768096        -0.127106
 H        -0.627010         0.770087         0.125659
 H        -0.204246        -1.056248        -0.173894
 H        -0.136022        -0.199549         1.448330
 H         1.945267         2.001966        -1.173675
 H         1.962124         2.316763         0.518150
 H         4.609962         0.124186         1.321957
 H         1.748039        -0.682933         2.207250
