19
Iteration:  3060
 C         3.823771        -2.440535         0.012099
 C         3.076341        -1.235782         0.281863
 O         2.528446        -0.633967        -0.968379
 C         1.561151         0.120503        -0.085758
 C         0.134601         0.341789        -0.483615
 C         2.294487         1.461849        -0.132836
 O         3.625045         1.184581         0.579882
 C         3.426107        -0.120317         1.248104
 C         1.950848        -0.601123         1.152821
 H         3.177621        -3.358810        -0.329875
 H         4.568141        -2.315789        -0.850253
 H         4.397571        -2.679322         0.929544
 H        -0.034819         1.312328        -0.904023
 H        -0.066512        -0.473812        -1.250838
 H        -0.470010         0.160863         0.393782
 H         2.491345         1.875768        -1.088506
 H         1.810064         2.248194         0.508203
 H         4.128402        -0.138598         2.049322
 H         1.386259        -1.166329         1.966168
