19
Iteration:  3295charge 0 multiplicity 1
 C         3.774648        -2.575200         0.199771
 C         3.025954        -1.256780         0.078376
 O         2.468335        -0.534666        -1.070141
 C         1.598707         0.159150        -0.132219
 C         0.128342         0.202548        -0.426133
 C         2.361675         1.515480        -0.048647
 O         3.511875         1.255648         0.752283
 C         3.475091        -0.080841         1.109434
 C         2.136993        -0.615415         1.090227
 H         3.150759        -3.489175         0.204834
 H         4.378495        -2.829096        -0.738636
 H         4.517943        -2.465770         1.055988
 H        -0.068085         0.976308        -1.247963
 H        -0.269731        -0.680553        -0.864458
 H        -0.540232         0.485908         0.428962
 H         2.569522         1.847567        -1.121522
 H         1.962707         2.401281         0.440148
 H         4.244491        -0.480524         1.703765
 H         1.403139        -0.891381         1.893366
