19
Iteration:  4360
 C         3.897576        -2.536500         0.186311
 C         3.037142        -1.229870         0.198556
 O         2.428518        -0.745542        -0.966708
 C         1.548353         0.184696        -0.170165
 C         0.013618         0.372929        -0.420495
 C         2.368460         1.447898        -0.051565
 O         3.650144         1.271537         0.567586
 C         3.490308        -0.069094         1.086863
 C         2.045029        -0.575136         1.108168
 H         3.309687        -3.248651        -0.444377
 H         4.858053        -2.372843        -0.293790
 H         4.001980        -3.059052         1.088623
 H        -0.496068        -0.002127         0.396047
 H        -0.185522         1.425258        -0.804991
 H        -0.296487        -0.340775        -1.182328
 H         2.523434         1.965413        -0.994914
 H         1.825445         2.016995         0.675339
 H         4.085766        -0.358068         1.925156
 H         1.362584        -0.987578         1.882887
