19
Iteration:  3646charge 0 multiplicity 1
 C         3.850169        -2.530390         0.026789
 C         3.147102        -1.161249         0.253496
 O         2.464993        -0.749124        -0.955590
 C         1.517703         0.201247        -0.111807
 C         0.102379         0.371471        -0.486539
 C         2.349459         1.504565         0.060875
 O         3.601351         1.235761         0.552428
 C         3.443958        -0.071277         1.109743
 C         2.058138        -0.677698         1.120927
 H         2.968426        -3.297975         0.214320
 H         4.308398        -2.675656        -0.975769
 H         4.503384        -2.754129         0.847007
 H        -0.031591         0.975726        -1.383267
 H        -0.407224        -0.638871        -0.774817
 H        -0.519280         0.797460         0.339101
 H         2.335581         2.064499        -0.952116
 H         1.835975         2.218122         0.706716
 H         4.043292        -0.464100         1.963411
 H         1.332119        -1.059220         1.900465
