19
Iteration:  4808charge 0 multiplicity 1
 C         3.598440        -2.470769        -0.272775
 C         3.095446        -1.187469         0.173193
 O         2.486344        -0.513936        -0.961630
 C         1.605692         0.148143        -0.001998
 C         0.262742         0.025201        -0.535778
 C         2.232451         1.568288         0.121707
 O         3.590121         1.335310         0.813708
 C         3.505743        -0.119647         1.166074
 C         2.136063        -0.654762         1.144931
 H         2.784716        -3.167418        -0.548325
 H         4.068403        -2.292452        -1.219546
 H         4.227813        -3.018122         0.429797
 H         0.402211        -0.255203        -1.577967
 H        -0.293543        -0.867634        -0.253222
 H        -0.263771         0.968400        -0.501673
 H         2.298713         1.726715        -0.953753
 H         1.632325         2.265228         0.742518
 H         4.257568        -0.456921         1.943782
 H         1.479231        -1.145440         1.894508
