19
Iteration:   885
 C         3.720573        -2.631490         0.066031
 C         3.256800        -1.179741         0.148134
 O         2.091031        -0.838543        -0.842765
 C         1.543918         0.123622         0.210349
 C         0.097823         0.099203         0.208873
 C         2.073321         1.474830        -0.169345
 O         3.521569         1.374203        -0.001287
 C         3.779623         0.153338         0.662848
 C         2.565765        -0.419174         1.328520
 H         3.852470        -2.923431         1.061888
 H         2.890721        -3.220902        -0.431125
 H         4.614615        -2.804828        -0.502349
 H        -0.208526         0.437703        -0.820272
 H        -0.273167        -0.913520         0.100002
 H        -0.466951         0.654666         0.996975
 H         1.837774         1.583860        -1.262554
 H         1.625887         2.305704         0.382263
 H         4.726193         0.093863         1.285922
 H         2.193263        -0.633790         2.330041
