19
Iteration:  3147charge 0 multiplicity 1
 C         3.690658        -2.622607         0.143533
 C         3.081167        -1.222298         0.186095
 O         2.617389        -0.455310        -1.058186
 C         1.602147         0.176809        -0.141302
 C         0.124301         0.133860        -0.423105
 C         2.312635         1.569100         0.039473
 O         3.560673         1.225904         0.607555
 C         3.499956        -0.041341         1.178321
 C         2.039460        -0.632004         0.975932
 H         2.838638        -3.337057        -0.156129
 H         4.517918        -2.687305        -0.583207
 H         3.980437        -2.963410         1.131893
 H        -0.328163         0.721230        -1.144635
 H        -0.316523        -0.865273        -0.560517
 H        -0.224677         0.396946         0.539574
 H         2.375873         1.841558        -0.959844
 H         1.688369         2.140394         0.729782
 H         4.079976        -0.143169         2.080686
 H         1.396944        -1.166691         1.734151
