19
Iteration:  2306
 C         3.976635        -2.400724        -0.362581
 C         3.135910        -1.197331         0.117244
 O         2.452750        -0.626094        -1.044880
 C         1.590593         0.184521        -0.082210
 C         0.116861         0.368485        -0.399875
 C         2.292991         1.440561         0.112058
 O         3.444976         1.203667         0.919239
 C         3.436527        -0.111712         1.185683
 C         2.044618        -0.804337         1.129668
 H         3.586201        -2.887796        -1.235654
 H         4.921893        -1.996527        -0.727332
 H         4.174535        -3.154850         0.387846
 H        -0.099734         0.331519        -1.517771
 H        -0.474156        -0.480225         0.060762
 H        -0.185172         1.367859        -0.038979
 H         2.426446         1.952706        -0.918620
 H         1.772512         2.187152         0.708092
 H         4.011138        -0.550400         2.102697
 H         1.419722        -1.173751         1.917837
