19
Iteration:  3167charge 0 multiplicity 1
 C         3.617058        -2.643542         0.047786
 C         3.228440        -1.201440         0.148388
 O         2.708642        -0.561470        -1.025527
 C         1.645956         0.217332        -0.196801
 C         0.132541         0.118806        -0.354840
 C         2.210822         1.611791         0.025536
 O         3.565565         1.249848         0.597623
 C         3.359803        -0.071895         1.177613
 C         2.075341        -0.583465         1.073784
 H         2.811634        -3.235062        -0.438018
 H         4.523893        -2.770458        -0.399828
 H         3.649172        -3.141871         0.999291
 H        -0.275627         0.349222        -1.341965
 H        -0.258661        -0.849401        -0.108377
 H        -0.360604         0.824963         0.345048
 H         2.498223         2.206652        -0.848729
 H         1.462825         1.979209         0.779485
 H         3.990407        -0.163648         2.013330
 H         1.399009        -0.982967         1.897403
