19
Iteration:  4304
 C         3.638817        -2.594610         0.137190
 C         3.033682        -1.166765         0.205893
 O         2.473098        -0.699105        -0.992493
 C         1.545263         0.147267        -0.108848
 C         0.068446         0.111982        -0.532335
 C         2.337246         1.638863         0.014249
 O         3.688963         1.320261         0.539862
 C         3.565390        -0.029893         1.150595
 C         2.138839        -0.633551         1.146247
 H         2.829408        -3.353342        -0.171541
 H         4.377288        -2.680644        -0.632186
 H         4.140784        -2.900428         1.051858
 H        -0.583818        -0.057694         0.293905
 H        -0.237106         1.177810        -0.662972
 H        -0.079705        -0.466459        -1.466732
 H         2.341804         2.129223        -0.957001
 H         1.875095         2.331780         0.679541
 H         4.235704        -0.391205         1.951466
 H         1.633126        -0.811658         2.113183
