19
Iteration:  4470
 C         3.594559        -2.684105         0.172682
 C         3.190386        -1.203093         0.092105
 O         2.607509        -0.627782        -1.072815
 C         1.606174         0.189785        -0.145711
 C         0.079615         0.281042        -0.477038
 C         2.202405         1.535256         0.114356
 O         3.539452         1.284165         0.630082
 C         3.541290        -0.055411         1.045585
 C         2.153719        -0.634938         1.111619
 H         2.768923        -3.424893         0.295312
 H         4.412363        -2.840855        -0.539125
 H         4.141123        -2.800658         1.090048
 H        -0.398476         1.161052        -0.856607
 H        -0.039456        -0.452004        -1.358882
 H        -0.446252        -0.114174         0.375714
 H         2.362532         2.338967        -0.632096
 H         1.608682         2.004566         0.915859
 H         4.281394        -0.179788         1.880634
 H         1.599232        -0.740674         2.055908
