19
Iteration:  2841charge 0 multiplicity 1
 C         3.712307        -2.529369        -0.076509
 C         3.047822        -1.238349         0.145243
 O         2.406162        -0.658019        -0.926115
 C         1.617626         0.205713        -0.047549
 C         0.203993         0.122866        -0.527935
 C         2.285318         1.605529         0.054545
 O         3.598372         1.278044         0.643138
 C         3.513137        -0.088438         1.123396
 C         2.095835        -0.590342         1.188112
 H         3.094143        -3.116527        -0.764420
 H         4.673827        -2.343511        -0.466824
 H         3.795565        -3.036207         0.898682
 H         0.071211        -0.964878        -0.797566
 H        -0.564152         0.361213         0.194254
 H         0.035840         0.895635        -1.386754
 H         2.451595         2.001453        -0.922087
 H         1.661282         2.230782         0.780629
 H         4.368069        -0.190386         1.773565
 H         1.677872        -1.012823         2.028446
