19
Iteration:  2236charge 0 multiplicity 1
 C         3.726994        -2.529339        -0.236534
 C         3.198763        -1.150850        -0.010381
 O         2.576672        -0.367744        -1.053583
 C         1.557547         0.203171        -0.050348
 C         0.187749         0.035828        -0.480110
 C         2.194563         1.553369         0.415664
 O         3.568970         1.188208         0.710909
 C         3.471081        -0.108918         1.124480
 C         1.993234        -0.698471         1.087033
 H         3.979684        -2.763881        -1.307859
 H         4.726982        -2.657478         0.292504
 H         3.053345        -3.339552         0.162425
 H         0.008799         0.234883        -1.515727
 H         0.000518        -1.047987        -0.348367
 H        -0.506214         0.572245         0.194947
 H         2.291076         2.432534        -0.190947
 H         1.604889         1.769285         1.367078
 H         4.230291        -0.249112         1.809612
 H         1.377041        -1.129326         1.935005
