19
Iteration:  4564charge 0 multiplicity 1
 C         3.807862        -2.424629        -0.092092
 C         3.056419        -1.259197         0.268820
 O         2.410170        -0.654067        -0.906518
 C         1.599896         0.158243        -0.078686
 C         0.167874         0.323228        -0.567797
 C         2.329614         1.480505        -0.034307
 O         3.561896         1.216627         0.654941
 C         3.509845        -0.110847         1.153400
 C         2.035774        -0.653432         1.194762
 H         3.219820        -3.056710        -0.790824
 H         4.728872        -1.970530        -0.446059
 H         4.148474        -3.142895         0.651347
 H        -0.058341        -0.459980        -1.278660
 H        -0.612883         0.071297         0.201663
 H        -0.059241         1.364730        -0.812556
 H         2.535529         1.880666        -1.005486
 H         1.808387         2.240623         0.527237
 H         4.241435        -0.358737         1.963443
 H         1.456248        -1.144480         2.010550
