19
Iteration:  1336charge 0 multiplicity 1
 C         3.755324        -2.584225         0.122094
 C         3.114581        -1.134313         0.141893
 O         2.097938        -0.926821        -0.837729
 C         1.539634         0.172282         0.191076
 C         0.022070        -0.030561         0.168818
 C         2.202441         1.523908        -0.241816
 O         3.580916         1.373767         0.003228
 C         3.789646         0.177322         0.677725
 C         2.450359        -0.366366         1.323401
 H         4.231025        -2.756611         1.172720
 H         2.914764        -3.262398         0.113667
 H         4.530718        -2.722477        -0.657303
 H        -0.425963         0.371626        -0.721581
 H        -0.105923        -1.097243         0.175061
 H        -0.395889         0.343386         1.095064
 H         2.064782         1.647023        -1.295093
 H         1.859220         2.340352         0.356043
 H         4.722851        -0.082112         1.231259
 H         2.296510        -0.432012         2.379901
