19
Iteration:  3445
 C         3.781836        -2.535677        -0.009555
 C         3.243695        -1.171133         0.176306
 O         2.424013        -0.706247        -1.025212
 C         1.606008         0.077306        -0.073854
 C         0.131292         0.355462        -0.497361
 C         2.332609         1.487826        -0.129972
 O         3.495706         1.252828         0.729250
 C         3.461451        -0.048938         1.201837
 C         2.078761        -0.636414         1.191773
 H         2.922737        -3.102148        -0.038800
 H         4.348155        -2.521207        -0.989547
 H         4.366924        -2.892361         0.875620
 H        -0.095075         1.265637        -1.172520
 H        -0.464093        -0.484323        -0.787690
 H        -0.365214         0.726543         0.429371
 H         2.696153         1.588847        -1.160910
 H         1.688089         2.230032         0.298202
 H         4.159163        -0.213763         2.079719
 H         1.452738        -1.093176         2.012089
