19
Iteration:  2099
 C         3.915107        -2.407663        -0.161125
 C         3.132580        -1.229483         0.106035
 O         2.452596        -0.540534        -0.947881
 C         1.522061         0.144487        -0.009395
 C         0.040448         0.199293        -0.378767
 C         2.215539         1.523649         0.235657
 O         3.604186         1.161327         0.554450
 C         3.475430        -0.144196         1.058497
 C         2.105210        -0.672845         1.083952
 H         4.081794        -2.901586         0.852866
 H         3.271396        -3.145574        -0.717402
 H         4.866957        -2.130360        -0.722281
 H        -0.580282         0.004354         0.518497
 H        -0.164835         1.235517        -0.720668
 H        -0.219671        -0.528769        -1.121027
 H         2.465405         2.116375        -0.706776
 H         1.723332         2.302982         0.913356
 H         4.179520        -0.286397         1.824347
 H         1.642383        -0.967832         2.070005
