19
Iteration:  2304charge 0 multiplicity 1
 C         3.969564        -2.409415        -0.367507
 C         3.157381        -1.176684         0.112229
 O         2.454965        -0.635664        -1.041729
 C         1.582020         0.172494        -0.064300
 C         0.125809         0.376794        -0.411043
 C         2.273705         1.450557         0.117337
 O         3.448348         1.209616         0.913932
 C         3.442786        -0.122720         1.182318
 C         2.035234        -0.796947         1.129530
 H         3.532003        -2.870885        -1.290269
 H         4.923497        -1.980183        -0.639298
 H         4.201986        -3.197294         0.338385
 H        -0.074386         0.319948        -1.508355
 H        -0.447666        -0.444486         0.071665
 H        -0.160755         1.349310        -0.055410
 H         2.483501         1.863746        -0.903118
 H         1.707705         2.171684         0.715507
 H         3.967732        -0.549441         2.084866
 H         1.422086        -1.183407         1.976075
