19
Iteration:   902charge 0 multiplicity 1
 C         3.558832        -2.649628         0.150148
 C         3.187390        -1.192614         0.083335
 O         2.253603        -0.781717        -0.823392
 C         1.606141         0.059851         0.175341
 C         0.147492         0.013401         0.184419
 C         2.065395         1.501845        -0.127186
 O         3.471963         1.480050        -0.044098
 C         3.787060         0.186684         0.697691
 C         2.547919        -0.519500         1.231927
 H         3.933799        -2.916635         1.229881
 H         2.708017        -3.243492        -0.092517
 H         4.303694        -3.031670        -0.631486
 H        -0.291160         0.294888        -0.758768
 H        -0.352029        -0.841202         0.669797
 H        -0.162580         0.872897         0.803699
 H         1.687020         1.832563        -1.090313
 H         1.574661         2.192349         0.651485
 H         4.701096         0.307245         1.145914
 H         2.536187        -0.841734         2.296959
