19
Iteration:  4211charge 0 multiplicity 1
 C         3.727028        -2.617326         0.181331
 C         3.020938        -1.213144         0.107785
 O         2.491862        -0.718616        -1.070379
 C         1.611733         0.205376        -0.069073
 C         0.137697         0.250238        -0.468789
 C         2.281829         1.530573         0.058819
 O         3.579953         1.281551         0.624925
 C         3.549332        -0.081557         1.015367
 C         2.074528        -0.554551         1.154475
 H         2.979031        -3.384642         0.148116
 H         4.586803        -2.618278        -0.630139
 H         4.247693        -2.791854         1.130990
 H        -0.176821         1.203775         0.073218
 H        -0.168823         0.552093        -1.470430
 H        -0.412161        -0.646464        -0.164847
 H         2.349796         2.155822        -0.824530
 H         1.657988         2.145268         0.648895
 H         4.436696        -0.146683         1.615960
 H         1.566368        -1.119390         1.952514
