19
Iteration:  3410charge 0 multiplicity 1
 C         3.817516        -2.549768         0.120693
 C         3.051427        -1.257477         0.130941
 O         2.385527        -0.710087        -1.094315
 C         1.562383         0.204831        -0.113743
 C         0.109531         0.222630        -0.525366
 C         2.328560         1.652749         0.061197
 O         3.586842         1.276551         0.749848
 C         3.523723        -0.175636         1.032447
 C         2.098276        -0.591173         1.156243
 H         3.326356        -3.351087        -0.363452
 H         4.736929        -2.487115        -0.430231
 H         4.139478        -2.766523         1.134836
 H         0.012624         0.358818        -1.642307
 H        -0.339540        -0.816200        -0.317480
 H        -0.391734         0.946422         0.120129
 H         2.553440         2.222022        -0.786496
 H         1.818062         2.331204         0.736501
 H         4.312183        -0.231754         1.759718
 H         1.424755        -0.751836         2.065694
