19
Iteration:  1090charge 0 multiplicity 1
 C         3.565115        -2.635934         0.072359
 C         3.123105        -1.153004         0.254677
 O         2.301361        -0.768668        -0.825443
 C         1.631339         0.162958         0.099419
 C         0.065187        -0.165228         0.284589
 C         2.143313         1.570714        -0.175270
 O         3.523052         1.309364        -0.156861
 C         3.774727         0.128769         0.743840
 C         2.456374        -0.297779         1.281925
 H         3.974906        -3.035122         1.031073
 H         2.752163        -3.271391        -0.369755
 H         4.370419        -2.741126        -0.721104
 H        -0.471895        -0.030382        -0.659368
 H         0.030163        -1.126846         0.752291
 H        -0.362330         0.632177         0.934956
 H         1.877255         1.991818        -1.182017
 H         1.662863         2.263712         0.609198
 H         4.727289         0.227824         1.381294
 H         2.189828        -0.291023         2.294095
