19
Iteration:  3505
 C         3.667327        -2.503073         0.090908
 C         3.066012        -1.173498         0.140761
 O         2.472166        -0.624750        -0.994066
 C         1.617381         0.276549        -0.041242
 C         0.119142         0.086430        -0.558607
 C         2.354510         1.599482         0.122387
 O         3.629185         1.163828         0.570964
 C         3.534115        -0.123302         1.057818
 C         2.039094        -0.539155         1.143989
 H         2.882209        -3.389829        -0.001228
 H         4.404126        -2.670355        -0.695146
 H         4.202808        -2.655173         1.041002
 H        -0.121064         0.637104        -1.411261
 H         0.122374        -1.003474        -0.886389
 H        -0.598566         0.114586         0.244732
 H         2.419358         2.348937        -0.710651
 H         1.783396         2.215293         0.914343
 H         4.158990        -0.399423         1.873801
 H         1.409698        -0.706518         2.040529
