19
Iteration:  3104
 C         3.824342        -2.560610         0.041966
 C         3.052133        -1.233505         0.196255
 O         2.283288        -0.779325        -0.911026
 C         1.570420         0.206850        -0.085403
 C         0.159234         0.265710        -0.692304
 C         2.288080         1.514709         0.042638
 O         3.637128         1.340664         0.729397
 C         3.517725        -0.057365         1.089245
 C         2.145091        -0.577698         1.207450
 H         3.181542        -3.467501        -0.349017
 H         4.405213        -2.239549        -0.934432
 H         4.538698        -2.763670         0.845760
 H         0.091165         1.169860        -1.243726
 H         0.127831        -0.485983        -1.549248
 H        -0.622487         0.149011         0.014554
 H         2.565960         1.887070        -0.915732
 H         1.691182         2.271146         0.666012
 H         4.111094        -0.466733         1.896115
 H         1.545237        -1.137231         2.007346
