19
Iteration:  4494charge 0 multiplicity 1
 C         3.705891        -2.553827         0.103299
 C         3.103606        -1.161020         0.142463
 O         2.444364        -0.578428        -1.026344
 C         1.607547         0.171368        -0.053862
 C         0.143484         0.182053        -0.479614
 C         2.338734         1.551200         0.044606
 O         3.593069         1.224750         0.580634
 C         3.483532        -0.113716         1.151396
 C         2.056777        -0.644060         1.108179
 H         3.017521        -3.351438        -0.117874
 H         4.704123        -2.368419        -0.450898
 H         4.099153        -2.898662         1.099042
 H         0.044225         1.023567        -1.271712
 H        -0.282008        -0.617270        -1.097547
 H        -0.516627         0.491728         0.394008
 H         2.521520         2.020509        -0.944226
 H         1.855964         2.314354         0.634549
 H         4.174968        -0.261989         1.986400
 H         1.558718        -1.282388         1.816498
