19
Iteration:  1560
 C         3.931870        -2.424683         0.001986
 C         3.126078        -1.170290         0.116842
 O         2.151312        -0.843983        -0.884319
 C         1.535314         0.165997         0.133810
 C        -0.019822         0.160264         0.114142
 C         2.237758         1.477267        -0.130816
 O         3.599065         1.245691         0.178985
 C         3.661977         0.035757         0.764599
 C         2.290743        -0.531215         1.269017
 H         3.403548        -3.366693        -0.173931
 H         4.489328        -2.170147        -1.003258
 H         4.739374        -2.501511         0.748030
 H        -0.453259         1.169857        -0.053248
 H        -0.277848        -0.570510        -0.686300
 H        -0.429005        -0.202030         1.064928
 H         2.120397         1.969965        -1.120782
 H         1.762916         2.112019         0.611510
 H         4.470823        -0.071672         1.510538
 H         2.042876        -0.766038         2.255763
