19
Iteration:  1690charge 0 multiplicity 1
 C         3.640328        -2.600221        -0.032296
 C         3.221046        -1.155533         0.116690
 O         2.309246        -0.655490        -0.918734
 C         1.569407         0.144529         0.108683
 C         0.010357        -0.019739        -0.103484
 C         2.124445         1.602359         0.075246
 O         3.541043         1.364019         0.271205
 C         3.707576         0.071431         0.832847
 C         2.454848        -0.607703         1.190843
 H         4.602943        -2.905764        -0.436580
 H         3.690266        -3.099422         0.990237
 H         2.932130        -3.164179        -0.634213
 H        -0.030710        -0.682964        -0.962031
 H        -0.691879        -0.400746         0.614093
 H        -0.329143         0.932969        -0.426458
 H         1.884286         2.357849        -0.724710
 H         1.993675         2.097856         1.119270
 H         4.570198        -0.106257         1.548208
 H         2.089385        -0.984030         2.113681
