19
Iteration:  2871charge 0 multiplicity 1
 C         3.863292        -2.601206        -0.007779
 C         3.148361        -1.212685         0.120065
 O         2.473990        -0.723197        -1.004088
 C         1.602158         0.100399        -0.100170
 C         0.048531         0.419661        -0.423368
 C         2.243859         1.440758        -0.014379
 O         3.544182         1.268774         0.670058
 C         3.484127        -0.035352         1.203793
 C         2.094858        -0.602539         1.110900
 H         3.145464        -3.288190        -0.553054
 H         4.775307        -2.576943        -0.576883
 H         4.189907        -2.684169         1.037643
 H        -0.399129        -0.195570        -1.230100
 H        -0.605458         0.298713         0.404647
 H        -0.055761         1.499233        -0.700541
 H         2.467930         1.786973        -0.995868
 H         1.547741         2.130222         0.482293
 H         4.229374        -0.200077         1.946004
 H         1.644387        -1.019054         1.979547
