19
Iteration:  4468
 C         3.582198        -2.680586         0.179098
 C         3.178376        -1.208487         0.092145
 O         2.620906        -0.644570        -1.075524
 C         1.630323         0.200060        -0.133313
 C         0.073469         0.264296        -0.476201
 C         2.215549         1.547769         0.124428
 O         3.525149         1.299360         0.624995
 C         3.547596        -0.055647         1.045385
 C         2.150239        -0.630121         1.101290
 H         2.739573        -3.487947         0.245831
 H         4.343622        -2.866183        -0.551368
 H         4.173596        -2.751210         1.062880
 H        -0.316370         1.157338        -0.844042
 H        -0.121219        -0.403180        -1.384946
 H        -0.461122        -0.158744         0.325177
 H         2.319330         2.355191        -0.622614
 H         1.582085         2.030659         0.953767
 H         4.281353        -0.189964         1.855329
 H         1.649186        -0.813375         2.081326
