19
Iteration:   399charge 0 multiplicity 1
 C         3.874204        -2.448318        -0.039209
 C         3.063958        -1.202692         0.145584
 O         2.091902        -0.942377        -0.838031
 C         1.510944         0.148882         0.186078
 C        -0.063964         0.112339         0.129387
 C         2.225990         1.477367        -0.144325
 O         3.633350         1.355813         0.135625
 C         3.738332         0.087285         0.736024
 C         2.460916        -0.431677         1.261209
 H         4.654349        -2.588259         0.698541
 H         3.224646        -3.353339         0.212701
 H         4.381872        -2.520217        -1.082959
 H        -0.449423        -0.025760        -0.905204
 H        -0.364023        -0.779373         0.671766
 H        -0.419640         1.034136         0.602627
 H         1.962480         1.630340        -1.219361
 H         1.835743         2.371889         0.482772
 H         4.708863         0.029249         1.297675
 H         2.179476        -0.740139         2.286604
