19
Iteration:  4656charge 0 multiplicity 1
 C         3.522486        -2.614117        -0.143032
 C         3.146784        -1.216404         0.151082
 O         2.547449        -0.470062        -0.930826
 C         1.574812         0.220578        -0.034080
 C         0.106616        -0.002180        -0.601268
 C         2.300752         1.633949         0.104779
 O         3.571931         1.276230         0.685791
 C         3.578164        -0.080580         1.228110
 C         2.174030        -0.635388         1.130508
 H         2.663101        -3.365793        -0.058847
 H         4.142521        -2.634198        -1.061412
 H         4.290200        -2.837376         0.609802
 H        -0.405677        -0.245624         0.342583
 H        -0.364023         0.837621        -1.082030
 H         0.151566        -0.703252        -1.431561
 H         2.237629         2.038007        -0.936981
 H         1.755731         2.369453         0.701235
 H         4.206085        -0.220859         2.065446
 H         1.627765        -1.202194         1.863909
