19
Iteration:  1320charge 0 multiplicity 1
 C         3.700413        -2.450926         0.248424
 C         3.153173        -1.190180         0.129942
 O         2.144715        -0.787853        -0.856728
 C         1.549895         0.146343         0.040536
 C         0.054523        -0.109873         0.294150
 C         2.154405         1.527049        -0.221433
 O         3.645940         1.278664        -0.044458
 C         3.744540         0.078711         0.704153
 C         2.429158        -0.322849         1.203345
 H         3.963573        -2.759370         1.227027
 H         2.979710        -3.278343        -0.145992
 H         4.588038        -2.616157        -0.382706
 H        -0.611134         0.651742        -0.212870
 H        -0.156319        -1.194833         0.010968
 H        -0.282139         0.044592         1.361748
 H         1.984129         1.916560        -1.275173
 H         1.750441         2.250483         0.563459
 H         4.649043         0.133733         1.282479
 H         2.100067        -0.544595         2.289546
