19
Iteration:  4856
 C         3.636124        -2.530233        -0.126876
 C         3.131972        -1.147613         0.071644
 O         2.610463        -0.461813        -1.093264
 C         1.591467         0.191850        -0.114459
 C         0.170776         0.043785        -0.482895
 C         2.230637         1.577565         0.324280
 O         3.565635         1.270527         0.735206
 C         3.506070        -0.138702         1.149072
 C         2.070266        -0.722756         1.044795
 H         2.906583        -3.325451        -0.288870
 H         4.237835        -2.600879        -1.123625
 H         4.330246        -2.746709         0.744651
 H        -0.146650        -0.840121        -1.120350
 H        -0.397753        -0.072640         0.455420
 H        -0.104998         1.048461        -1.014010
 H         2.205485         2.395522        -0.427525
 H         1.645518         1.831087         1.200437
 H         3.949273        -0.202754         2.118717
 H         1.569471        -1.110278         1.910261
