19
Iteration:  4555
 C         3.878050        -2.450343        -0.116945
 C         3.098483        -1.203751         0.295679
 O         2.385380        -0.721990        -0.896546
 C         1.565880         0.210665        -0.135677
 C         0.131180         0.307269        -0.560576
 C         2.370809         1.503611         0.002705
 O         3.614531         1.248959         0.634210
 C         3.434523        -0.168941         1.199007
 C         1.992733        -0.641458         1.222663
 H         3.269881        -2.742990        -1.035951
 H         4.700447        -2.224775        -0.712604
 H         4.130384        -3.162721         0.613478
 H         0.095449        -0.310196        -1.424604
 H        -0.491204        -0.124623         0.296471
 H        -0.238510         1.267265        -0.794232
 H         2.599242         1.786354        -1.039659
 H         1.713582         2.294908         0.444377
 H         4.211931        -0.482172         1.957721
 H         1.399615        -0.826669         2.138624
