19
Iteration:  4276
 C         3.512975        -2.651356        -0.009115
 C         3.060584        -1.139786         0.311184
 O         2.530599        -0.564402        -0.897910
 C         1.619650         0.213923        -0.113936
 C         0.262135         0.021274        -0.527709
 C         2.288755         1.509655        -0.033135
 O         3.590730         1.195746         0.522924
 C         3.564092         0.003247         1.146037
 C         2.067991        -0.440352         1.197720
 H         2.766321        -3.378786        -0.175433
 H         3.878038        -2.679051        -1.154021
 H         4.344807        -2.945670         0.617236
 H        -0.129462        -0.196805         0.487939
 H        -0.416828         0.843761        -0.886763
 H         0.233406        -0.781418        -1.256585
 H         2.381172         1.904719        -1.066143
 H         1.813066         2.281516         0.678665
 H         4.107033        -0.228663         2.021150
 H         1.623647        -0.520037         2.200795
