19
Iteration:   645
 C         4.091945        -2.405612         0.013970
 C         3.110518        -1.159309         0.080140
 O         1.995505        -1.034357        -0.822046
 C         1.511217         0.105401         0.174253
 C        -0.050150         0.380776         0.250123
 C         2.138218         1.362056        -0.242381
 O         3.549433         1.319620         0.076892
 C         3.746247         0.093709         0.697261
 C         2.445999        -0.555321         1.356761
 H         4.521937        -2.775666         0.993447
 H         3.595214        -3.223639        -0.592631
 H         4.893620        -2.241518        -0.698524
 H        -0.220151         1.276954        -0.337629
 H        -0.684765        -0.472285         0.185745
 H        -0.261360         0.729603         1.282319
 H         2.168543         1.483154        -1.333756
 H         1.710699         2.241259         0.114740
 H         4.746205        -0.008761         1.131406
 H         1.918620        -0.851607         2.318712
