19
Iteration:  3769
 C         3.725585        -2.571893         0.069627
 C         3.124022        -1.214705         0.142038
 O         2.399599        -0.720805        -1.007794
 C         1.549749         0.182065        -0.000069
 C         0.130191         0.253519        -0.516819
 C         2.295791         1.548489        -0.003832
 O         3.640309         1.249525         0.570307
 C         3.522451        -0.047935         1.123125
 C         2.130114        -0.554566         1.207296
 H         2.920288        -3.209018        -0.421345
 H         4.692704        -2.632450        -0.339658
 H         3.754184        -3.051400         1.100237
 H        -0.693839         0.578468         0.205956
 H         0.016383         0.775024        -1.426768
 H        -0.120077        -0.763281        -0.781977
 H         2.394835         1.831361        -1.055856
 H         1.766633         2.373501         0.545144
 H         4.279258        -0.083763         1.901020
 H         1.671143        -0.823750         2.132571
