19
Iteration:   890charge 0 multiplicity 1
 C         3.664025        -2.648451         0.066661
 C         3.252867        -1.197306         0.120011
 O         2.127678        -0.820226        -0.843652
 C         1.614268         0.094961         0.209148
 C         0.102078         0.105859         0.191953
 C         2.031089         1.477630        -0.161491
 O         3.502859         1.433799        -0.028438
 C         3.754089         0.152292         0.670143
 C         2.584301        -0.454001         1.336042
 H         3.835494        -2.933057         1.187916
 H         2.765201        -3.213526        -0.231520
 H         4.646829        -2.848349        -0.453074
 H        -0.163173         0.333199        -0.835692
 H        -0.230413        -0.975635         0.219063
 H        -0.274589         0.725470         0.987156
 H         1.823221         1.606346        -1.213387
 H         1.661775         2.371252         0.500025
 H         4.612078         0.105439         1.363722
 H         2.249466        -0.760861         2.335037
