19
Iteration:  3600charge 0 multiplicity 1
 C         3.765205        -2.462996        -0.001013
 C         3.078347        -1.180529         0.204424
 O         2.398489        -0.701517        -1.005134
 C         1.525299         0.263943        -0.069626
 C         0.126939         0.146392        -0.452448
 C         2.440520         1.558599        -0.046504
 O         3.657345         1.199504         0.676328
 C         3.458892        -0.136558         1.117502
 C         1.995822        -0.573936         1.179849
 H         3.060646        -3.114849        -0.559642
 H         4.559913        -1.967589        -0.647831
 H         4.203744        -2.854850         0.903012
 H         0.241631        -0.186135        -1.500238
 H        -0.332085        -0.723123         0.147899
 H        -0.509770         1.072990        -0.281237
 H         2.622462         1.931063        -1.123999
 H         2.069219         2.473227         0.395559
 H         4.124182        -0.402539         1.905938
 H         1.424028        -0.983287         1.957431
