19
Iteration:  3150
 C         3.673724        -2.654704         0.131809
 C         3.091941        -1.212347         0.202323
 O         2.630861        -0.445802        -1.059085
 C         1.616290         0.168795        -0.176496
 C         0.115940         0.132881        -0.395975
 C         2.314027         1.555966         0.046992
 O         3.546312         1.234149         0.595100
 C         3.502292        -0.022033         1.193331
 C         2.026683        -0.651663         0.976465
 H         2.866423        -3.335996        -0.243824
 H         4.587855        -2.743748        -0.631326
 H         3.969949        -2.921497         1.180872
 H        -0.327533         0.712279        -1.246441
 H        -0.310327        -0.941300        -0.499232
 H        -0.203697         0.480965         0.594500
 H         2.337220         1.960015        -1.004998
 H         1.755221         2.222095         0.764435
 H         4.066845        -0.177673         2.159425
 H         1.393292        -1.068007         1.717943
