19
Iteration:  2235
 C         3.719328        -2.524872        -0.232610
 C         3.204044        -1.162764        -0.019839
 O         2.582598        -0.365228        -1.052466
 C         1.557586         0.207327        -0.066548
 C         0.180322         0.038134        -0.470951
 C         2.194097         1.548853         0.418950
 O         3.565439         1.193435         0.708766
 C         3.466237        -0.111076         1.135362
 C         1.998514        -0.692937         1.082701
 H         3.976722        -2.761589        -1.297186
 H         4.729232        -2.670512         0.321804
 H         3.038252        -3.363263         0.145472
 H        -0.003527         0.238119        -1.497971
 H         0.060166        -1.042295        -0.373218
 H        -0.516557         0.544871         0.229004
 H         2.284872         2.408411        -0.233905
 H         1.612399         1.766944         1.392133
 H         4.232948        -0.259025         1.836128
 H         1.430708        -1.137646         1.925367
