19
Iteration:  3173
 C         3.607000        -2.605906         0.049083
 C         3.170772        -1.189604         0.156999
 O         2.687250        -0.610295        -1.024743
 C         1.642410         0.200123        -0.136791
 C         0.162054         0.108042        -0.412872
 C         2.241539         1.616982         0.048189
 O         3.538472         1.243609         0.628758
 C         3.442494        -0.059538         1.155911
 C         2.065104        -0.546144         1.061291
 H         2.819496        -3.009172        -0.605066
 H         4.623025        -2.814462        -0.549356
 H         3.565665        -3.162747         1.040331
 H        -0.286257         0.196343        -1.466891
 H        -0.298748        -0.835091         0.001270
 H        -0.278008         0.866839         0.302284
 H         2.252797         2.170736        -0.951015
 H         1.467250         2.001782         0.735695
 H         4.092861        -0.234878         2.054877
 H         1.519996        -0.998657         1.824756
