19
Iteration:  3990
 C         3.729070        -2.489518         0.021618
 C         3.035552        -1.192893         0.278931
 O         2.388445        -0.755024        -0.909505
 C         1.588872         0.122332        -0.060633
 C         0.183952         0.270720        -0.545195
 C         2.346366         1.441316        -0.115330
 O         3.677422         1.251615         0.554851
 C         3.491522        -0.016470         1.153609
 C         2.024572        -0.545101         1.235367
 H         2.986660        -3.164004        -0.369707
 H         4.391341        -2.413653        -0.862956
 H         4.254621        -2.836053         0.905909
 H        -0.240363        -0.706823        -0.500972
 H        -0.457539         0.957893         0.085747
 H         0.150375         0.608694        -1.618324
 H         2.573254         1.737242        -1.134165
 H         1.821400         2.214756         0.517685
 H         4.147480        -0.084683         1.987034
 H         1.571653        -0.754007         2.165772
