19
Iteration:   391
 C         3.814435        -2.488939         0.054501
 C         3.148725        -1.150412         0.086176
 O         2.049265        -0.875434        -0.900958
 C         1.509549         0.146643         0.146102
 C        -0.047814         0.016552         0.176355
 C         2.153663         1.500392        -0.114903
 O         3.698303         1.351773         0.105591
 C         3.782101         0.054255         0.776687
 C         2.437687        -0.425879         1.232228
 H         4.713690        -2.396084         0.698760
 H         3.135060        -3.261970         0.157533
 H         4.197406        -2.736377        -0.972067
 H        -0.295107        -0.091027        -0.897985
 H        -0.357305        -0.907776         0.706282
 H        -0.551910         0.847590         0.722356
 H         2.081746         1.797527        -1.172433
 H         1.970025         2.340159         0.576420
 H         4.568707         0.007491         1.433660
 H         2.041199        -0.460192         2.286405
