19
Iteration:  2121
 C         4.038814        -2.377033        -0.158160
 C         3.072156        -1.210068         0.079849
 O         2.407249        -0.550693        -0.982368
 C         1.524219         0.185491        -0.013367
 C         0.075046         0.296346        -0.364197
 C         2.291050         1.480596         0.136388
 O         3.585453         1.153627         0.566144
 C         3.460917        -0.189790         1.164488
 C         2.006174        -0.760177         1.173387
 H         4.956243        -2.412616         0.498524
 H         3.614538        -3.364054        -0.416861
 H         4.254248        -1.968933        -1.186953
 H        -0.524877         0.614501         0.518938
 H        -0.175170         0.986900        -1.198861
 H        -0.248850        -0.702637        -0.581162
 H         2.327946         2.165728        -0.797899
 H         1.787369         2.120690         0.963721
 H         4.229223        -0.243158         1.912971
 H         1.323709        -1.358672         1.844884
