19
Iteration:  4740charge 0 multiplicity 1
 C         3.932081        -2.360340         0.088552
 C         3.081093        -1.208750         0.048583
 O         2.426881        -0.504404        -1.090028
 C         1.553802         0.157420        -0.106911
 C         0.096078         0.345035        -0.388202
 C         2.196595         1.565685         0.145687
 O         3.588408         1.060461         0.652100
 C         3.472438        -0.223414         1.108841
 C         2.114717        -0.766919         1.061322
 H         3.619830        -3.302771        -0.479860
 H         4.922168        -2.255282        -0.260785
 H         3.858805        -2.575057         1.124247
 H        -0.262182         1.331934        -0.631286
 H        -0.293701        -0.186831        -1.406515
 H        -0.498013         0.129200         0.455725
 H         2.477809         1.987633        -0.835043
 H         1.708515         2.271823         0.913587
 H         4.182027        -0.527806         1.831691
 H         1.727637        -1.284251         1.911158
