19
Iteration:  1506charge 0 multiplicity 1
 C         3.605211        -2.581962         0.038783
 C         3.176583        -1.151741         0.177785
 O         2.237591        -0.749122        -0.839161
 C         1.608230         0.124868         0.128111
 C        -0.003363        -0.138040         0.056411
 C         2.158878         1.622532        -0.096496
 O         3.600939         1.330695         0.040482
 C         3.776579         0.150241         0.795189
 C         2.471279        -0.432983         1.286055
 H         3.262919        -2.799959        -0.958060
 H         4.735751        -2.795154         0.026721
 H         3.002144        -3.160307         0.727454
 H        -0.436516         0.213561         1.051541
 H        -0.583378         0.343895        -0.783365
 H        -0.148838        -1.225069         0.158349
 H         1.935506         1.896657        -1.161673
 H         1.669298         2.347453         0.581729
 H         4.658299         0.093609         1.413147
 H         2.023441        -0.734403         2.193732
