19
Iteration:  3298charge 0 multiplicity 1
 C         3.764386        -2.558589         0.190729
 C         3.039193        -1.257945         0.083587
 O         2.447931        -0.541190        -1.067736
 C         1.579505         0.174249        -0.137343
 C         0.150112         0.191204        -0.436091
 C         2.365486         1.509549        -0.050932
 O         3.510918         1.254655         0.767874
 C         3.480800        -0.086002         1.093496
 C         2.152825        -0.611515         1.097182
 H         3.043074        -3.458220         0.257396
 H         4.336764        -2.728303        -0.685027
 H         4.433214        -2.516681         1.031137
 H         0.044346         0.988614        -1.205285
 H        -0.205163        -0.807124        -0.886104
 H        -0.535284         0.520082         0.409899
 H         2.571823         1.849957        -1.077092
 H         1.858788         2.350537         0.402918
 H         4.317576        -0.467870         1.710156
 H         1.454765        -0.880169         1.870452
