19
Iteration:  1189
 C         3.964685        -2.371829         0.076570
 C         3.119071        -1.138972         0.240976
 O         2.167453        -0.875524        -0.816294
 C         1.484320         0.114904         0.008458
 C         0.063956         0.207844         0.318665
 C         2.194305         1.399243        -0.321267
 O         3.589762         1.207720        -0.090002
 C         3.640185         0.054852         0.865764
 C         2.274241        -0.468659         1.295124
 H         4.940502        -2.140968         0.449427
 H         3.557601        -3.297302         0.639699
 H         4.003226        -2.660486        -1.009038
 H        -0.545729         0.573214        -0.520534
 H        -0.326473        -0.798399         0.520073
 H         0.085723         0.807118         1.272718
 H         2.048056         1.765134        -1.363655
 H         1.843798         2.175573         0.320640
 H         4.616108        -0.130054         1.252640
 H         1.813720        -0.591559         2.222692
