19
Iteration:  3897charge 0 multiplicity 1
 C         3.522712        -2.669459         0.106537
 C         3.074921        -1.252272         0.310851
 O         2.502827        -0.704172        -0.975714
 C         1.547878         0.181776        -0.095113
 C         0.119039         0.101557        -0.545285
 C         2.297867         1.584325         0.010654
 O         3.646497         1.307052         0.510203
 C         3.578738         0.033896         1.036425
 C         2.221002        -0.481742         1.228295
 H         2.705299        -3.316500        -0.343048
 H         4.410972        -2.763054        -0.564757
 H         3.814532        -2.929080         1.136363
 H        -0.055619        -0.770623        -1.238823
 H        -0.625912         0.166331         0.274051
 H        -0.025076         1.010339        -1.139964
 H         2.445449         2.007714        -1.035967
 H         1.748321         2.253942         0.737701
 H         4.186887        -0.095766         1.935355
 H         1.719107        -0.591172         2.173874
