19
Iteration:  2072
 C         3.699211        -2.580493        -0.152626
 C         3.115788        -1.218099         0.115880
 O         2.384958        -0.574971        -1.084325
 C         1.578081         0.162929        -0.020677
 C         0.171243         0.083028        -0.374669
 C         2.156136         1.559962         0.201024
 O         3.574134         1.354697         0.683825
 C         3.605806        -0.031832         1.073309
 C         2.239952        -0.659320         1.139434
 H         3.208725        -3.157688         0.571059
 H         3.385158        -2.851893        -1.179122
 H         4.749615        -2.655397        -0.128512
 H        -0.407753        -0.600192         0.259427
 H        -0.398489         1.013974        -0.367816
 H         0.209565        -0.395500        -1.395192
 H         2.351752         2.134159        -0.693312
 H         1.533830         2.139483         0.904692
 H         4.469815        -0.119377         1.811048
 H         1.809772        -1.174988         1.962903
