19
Iteration:  2385
 C         3.658210        -2.599970        -0.275983
 C         3.190813        -1.133337         0.103674
 O         2.610841        -0.494325        -0.955984
 C         1.606869         0.130054        -0.035230
 C         0.183600         0.168616        -0.528323
 C         2.163020         1.494306         0.346948
 O         3.467535         1.300783         0.695041
 C         3.530859        -0.073463         1.134869
 C         2.147210        -0.719102         1.091828
 H         2.855165        -3.250185        -0.066221
 H         3.917532        -2.595076        -1.385519
 H         4.490966        -3.044037         0.287921
 H        -0.039294         1.191797        -0.902481
 H         0.111949        -0.488303        -1.431976
 H        -0.715592        -0.250552         0.097232
 H         2.279658         2.337569        -0.432687
 H         1.496796         1.879536         1.148325
 H         4.116479        -0.301688         1.950361
 H         1.525331        -0.986075         1.979624
