19
Iteration:  4611charge 0 multiplicity 1
 C         3.701723        -2.571852         0.098004
 C         3.058322        -1.222703         0.049277
 O         2.524023        -0.584019        -1.069356
 C         1.577759         0.223162        -0.213331
 C         0.118315         0.145534        -0.476658
 C         2.269722         1.576005         0.236199
 O         3.583436         1.267061         0.696530
 C         3.550573        -0.084372         1.121831
 C         2.124889        -0.653609         1.017992
 H         2.834386        -3.358749         0.226713
 H         4.458981        -2.695785        -0.658439
 H         4.283439        -2.770720         0.969277
 H        -0.355900        -0.750209        -0.089499
 H        -0.403657         1.021568        -0.000725
 H        -0.006349         0.423238        -1.498796
 H         2.461784         2.348012        -0.543424
 H         1.637647         2.069661         0.999558
 H         4.127327        -0.324077         2.008993
 H         1.484369        -1.239486         1.660134
