19
Iteration:  1423
 C         3.951577        -2.413056         0.090169
 C         3.012295        -1.171536         0.172755
 O         2.145666        -0.830864        -0.878150
 C         1.558920         0.180521         0.124639
 C         0.047707         0.076070         0.257845
 C         2.171224         1.511740        -0.220477
 O         3.632166         1.212269        -0.007234
 C         3.675136        -0.009560         0.769685
 C         2.313909        -0.387923         1.243419
 H         5.101840        -2.178470         0.007892
 H         3.716682        -3.013422         0.957622
 H         3.668235        -3.171775        -0.685485
 H        -0.213989        -0.978996         0.325075
 H        -0.451273         0.528302         1.101402
 H        -0.515090         0.489844        -0.604073
 H         2.006676         1.955606        -1.188545
 H         1.810831         2.245264         0.552005
 H         4.642891        -0.251402         1.295119
 H         2.061581        -0.571212         2.242898
