19
Iteration:    92charge 0 multiplicity 1
 C         3.906537        -2.559668        -0.010228
 C         3.119818        -1.279526         0.204805
 O         2.163835        -0.867640        -0.795622
 C         1.499618         0.171967         0.173349
 C        -0.016984         0.175145         0.080792
 C         2.162278         1.507948        -0.196536
 O         3.559922         1.417054         0.138986
 C         3.763102         0.057267         0.733599
 C         2.428401        -0.488199         1.268385
 H         4.586919        -2.835574         0.846275
 H         3.173033        -3.400892        -0.227767
 H         4.462131        -2.409247        -0.904671
 H        -0.502283         1.094423        -0.278649
 H        -0.416700        -0.576903        -0.631720
 H        -0.541032        -0.103676         1.021553
 H         2.006925         1.567701        -1.275086
 H         1.590499         2.299540         0.323112
 H         4.637532        -0.023480         1.366558
 H         2.116748        -0.826043         2.324307
