19
Iteration:  2859
 C         3.815325        -2.558207        -0.020965
 C         3.179090        -1.250641         0.242515
 O         2.436576        -0.716785        -1.008673
 C         1.519362         0.139073        -0.131875
 C         0.051738         0.343995        -0.498689
 C         2.285553         1.513386         0.019200
 O         3.543567         1.297065         0.694959
 C         3.550173        -0.039535         1.095027
 C         2.148132        -0.641440         1.169806
 H         3.095406        -3.279722        -0.547470
 H         4.756354        -2.431039        -0.612172
 H         3.960889        -3.280621         0.806969
 H        -0.281236        -0.440111        -1.164991
 H        -0.441354         0.264869         0.470973
 H        -0.147529         1.285276        -0.991372
 H         2.422277         2.005026        -0.967500
 H         1.807981         2.229432         0.668321
 H         4.159981        -0.205013         1.974361
 H         1.445773        -0.919143         2.001413
