19
Iteration:  4944
 C         3.927108        -2.372926        -0.392187
 C         3.073923        -1.247745         0.119463
 O         2.486005        -0.651502        -0.973930
 C         1.604330         0.198322        -0.102342
 C         0.113118         0.219900        -0.482523
 C         2.326621         1.494675         0.151084
 O         3.579246         1.245158         0.828712
 C         3.352453        -0.161316         1.314041
 C         1.977053        -0.697898         1.142478
 H         3.454490        -2.754930        -1.359450
 H         4.760902        -1.684493        -0.770419
 H         4.206480        -3.221337         0.232386
 H        -0.421703        -0.032859         0.449478
 H        -0.197156         1.225201        -0.670504
 H        -0.091322        -0.267734        -1.448832
 H         2.593446         1.828453        -0.877050
 H         1.761834         2.188036         0.799488
 H         4.056085        -0.524250         2.039200
 H         1.387097        -0.862187         2.059196
