19
Iteration:  2854
 C         3.780116        -2.561929        -0.002494
 C         3.140045        -1.216464         0.258220
 O         2.410000        -0.705114        -0.982618
 C         1.582599         0.193827        -0.112735
 C         0.081953         0.258815        -0.511672
 C         2.307430         1.544068         0.042690
 O         3.539978         1.314804         0.667698
 C         3.553792        -0.077062         1.064103
 C         2.143732        -0.664254         1.176133
 H         3.113056        -3.093934        -0.680217
 H         4.703556        -2.384481        -0.617890
 H         4.015459        -3.372341         0.707829
 H        -0.271448        -0.539480        -1.202671
 H        -0.472437         0.316828         0.465971
 H        -0.115829         1.140925        -1.184066
 H         2.462957         2.120189        -0.920249
 H         1.679393         2.302111         0.626869
 H         4.131498        -0.394430         1.962454
 H         1.531014        -0.980199         2.032203
