19
Iteration:   525
 C         3.476583        -2.610898         0.188969
 C         3.289767        -1.122670         0.055282
 O         2.280280        -0.730010        -0.942755
 C         1.556124         0.086020         0.169060
 C         0.069280        -0.090781         0.184779
 C         2.077333         1.460566         0.000339
 O         3.554511         1.394767        -0.083182
 C         3.790180         0.195405         0.675874
 C         2.550915        -0.424983         1.264930
 H         4.149230        -2.896282         1.090180
 H         2.448507        -2.937157         0.486560
 H         3.789644        -3.233087        -0.681471
 H        -0.240170         0.230763        -0.822155
 H        -0.153120        -1.127789         0.448895
 H        -0.422055         0.599932         0.896972
 H         1.726412         2.169820        -0.803152
 H         1.688748         1.882855         1.019948
 H         4.840801         0.152318         1.212316
 H         2.149944        -0.786833         2.180966
