19
Iteration:   612charge 0 multiplicity 1
 C         4.005379        -2.427626        -0.075476
 C         3.060784        -1.220513         0.224495
 O         2.101094        -0.860541        -0.848311
 C         1.517305         0.104371         0.102461
 C         0.044776         0.185984         0.331043
 C         2.182485         1.445434        -0.281293
 O         3.603144         1.270641         0.006262
 C         3.643160         0.049234         0.808373
 C         2.340799        -0.464826         1.319297
 H         4.844814        -2.590495         0.705180
 H         3.467773        -3.415143        -0.137523
 H         4.534418        -1.992129        -0.925322
 H        -0.699276         0.535362        -0.456167
 H        -0.362338        -0.779165         0.626787
 H         0.031774         0.963317         1.117381
 H         2.139436         1.549330        -1.394661
 H         1.802690         2.296426         0.255455
 H         4.670813        -0.043607         1.337767
 H         1.804800        -0.564836         2.295999
