19
Iteration:  1712charge 0 multiplicity 1
 C         3.664244        -2.514818        -0.047257
 C         3.222237        -1.128770         0.071442
 O         2.241672        -0.730789        -0.908970
 C         1.531268         0.080437         0.125235
 C         0.066672         0.103180        -0.181284
 C         2.114127         1.440522         0.034396
 O         3.570666         1.401615         0.355478
 C         3.741981         0.013186         0.907914
 C         2.414545        -0.552798         1.209714
 H         4.203782        -2.499750        -0.989128
 H         4.524857        -2.848060         0.644000
 H         2.884573        -3.295790        -0.093456
 H        -0.260733        -0.697582        -0.835142
 H        -0.332311        -0.030024         0.812227
 H        -0.233811         1.068660        -0.511849
 H         1.950593         1.890583        -0.993662
 H         1.484142         1.980962         0.881681
 H         4.729105        -0.129132         1.434120
 H         2.040825        -0.865366         2.174695
