19
Iteration:  2303
 C         3.965837        -2.412396        -0.369761
 C         3.166650        -1.168876         0.109226
 O         2.455611        -0.639081        -1.039298
 C         1.577350         0.164335        -0.056085
 C         0.129773         0.378700        -0.417208
 C         2.265431         1.457196         0.119659
 O         3.450788         1.213317         0.911040
 C         3.445135        -0.132026         1.182561
 C         2.031758        -0.791679         1.128137
 H         3.504387        -2.858294        -1.308115
 H         4.934076        -1.971297        -0.603077
 H         4.211893        -3.219721         0.324213
 H        -0.058685         0.315536        -1.494853
 H        -0.435591        -0.418802         0.072698
 H        -0.157069         1.346036        -0.059353
 H         2.514411         1.820522        -0.885144
 H         1.670468         2.168099         0.717571
 H         3.948997        -0.533642         2.061340
 H         1.428242        -1.187966         1.996348
