19
Iteration:  3997charge 0 multiplicity 1
 C         3.735911        -2.531122        -0.013134
 C         3.049332        -1.194252         0.321129
 O         2.429651        -0.747698        -0.876399
 C         1.574277         0.132820        -0.080581
 C         0.145358         0.276763        -0.569824
 C         2.368461         1.481437        -0.087591
 O         3.657247         1.266090         0.539444
 C         3.521488        -0.015427         1.130308
 C         2.029365        -0.512720         1.279207
 H         2.978158        -3.358067        -0.383839
 H         4.306198        -2.425095        -0.914596
 H         4.399678        -2.884974         0.880801
 H        -0.497530        -0.662666        -0.346021
 H        -0.462560         1.004880        -0.069946
 H         0.237224         0.493538        -1.635191
 H         2.396248         1.688927        -1.176386
 H         1.720080         2.256209         0.327204
 H         4.104012        -0.420503         1.989301
 H         1.394135        -1.040356         2.090914
