19
Iteration:  4956charge 0 multiplicity 1
 C         3.935432        -2.398639        -0.401369
 C         3.125377        -1.215688         0.199980
 O         2.524386        -0.572495        -0.993072
 C         1.583512         0.189249        -0.062141
 C         0.088213         0.246029        -0.496879
 C         2.314847         1.593760         0.093642
 O         3.546810         1.200953         0.835050
 C         3.438768        -0.265628         1.232009
 C         1.928551        -0.705491         1.184678
 H         3.267971        -2.998508        -1.189948
 H         4.953152        -2.143360        -0.857633
 H         4.279327        -3.070921         0.400122
 H        -0.529353        -0.081887         0.365498
 H        -0.300320         1.219354        -0.897421
 H        -0.175973        -0.638325        -1.057797
 H         2.477612         2.267331        -0.787890
 H         1.679682         2.248509         0.710580
 H         4.116050        -0.541502         2.043747
 H         1.169840        -1.045280         1.928587
