19
Iteration:  4471
 C         3.600776        -2.684518         0.169430
 C         3.194744        -1.201755         0.093800
 O         2.599525        -0.619103        -1.071078
 C         1.594464         0.185134        -0.151809
 C         0.084760         0.285262        -0.479699
 C         2.197310         1.530482         0.110081
 O         3.546585         1.276891         0.632098
 C         3.539104        -0.055586         1.047215
 C         2.155163        -0.635803         1.115384
 H         2.790661        -3.383551         0.306492
 H         4.441050        -2.838836        -0.544170
 H         4.131532        -2.823601         1.120540
 H        -0.435636         1.184574        -0.862834
 H        -0.000576        -0.467958        -1.328456
 H        -0.448562        -0.096776         0.408630
 H         2.377848         2.321464        -0.643076
 H         1.619805         1.991000         0.898426
 H         4.272309        -0.178627         1.884263
 H         1.576929        -0.715049         2.036960
