19
Iteration:  4790charge 0 multiplicity 1
 C         3.733655        -2.530729        -0.244220
 C         3.150334        -1.160571         0.139022
 O         2.469878        -0.616873        -0.985048
 C         1.600420         0.211038        -0.087732
 C         0.117440         0.131739        -0.559549
 C         2.322357         1.536862         0.149538
 O         3.497744         1.242627         0.776384
 C         3.539673        -0.071881         1.186913
 C         2.107321        -0.641443         1.194030
 H         2.951916        -3.106920        -0.683932
 H         4.489708        -2.446282        -1.117191
 H         4.303967        -3.061938         0.599547
 H        -0.113809         0.362843        -1.655876
 H        -0.297696        -0.778556        -0.199603
 H        -0.590625         0.931219        -0.029432
 H         2.599708         2.269633        -0.620284
 H         1.601458         2.053433         0.805812
 H         4.264490        -0.282505         1.999775
 H         1.508081        -1.057060         2.028260
