19
Iteration:   999charge 0 multiplicity 1
 C         3.849039        -2.498356        -0.049794
 C         3.234697        -1.151641         0.278929
 O         2.139642        -1.022985        -0.774034
 C         1.497837         0.107531         0.146136
 C         0.005817         0.253358         0.156102
 C         2.126507         1.386895        -0.259723
 O         3.560621         1.359645        -0.023212
 C         3.741131         0.154846         0.847303
 C         2.441232        -0.430241         1.315854
 H         4.890100        -2.736332         0.381094
 H         3.221936        -3.340462         0.108617
 H         3.776833        -2.537502        -1.154071
 H        -0.366965         0.933993        -0.612037
 H        -0.554455        -0.724108         0.025353
 H        -0.287391         0.704206         1.111931
 H         2.019241         1.592456        -1.304096
 H         1.687068         2.256908         0.304542
 H         4.546056         0.104638         1.470205
 H         2.155216        -0.920418         2.311781
