19
Iteration:   854
 C         3.932673        -2.366593        -0.041908
 C         3.041903        -1.195966         0.255946
 O         2.024951        -0.900731        -0.790172
 C         1.480184         0.172937         0.104798
 C        -0.011539         0.053838         0.280379
 C         2.242487         1.503855        -0.282165
 O         3.739842         1.243466        -0.058880
 C         3.677087         0.030613         0.729597
 C         2.391668        -0.394294         1.397417
 H         4.187918        -2.822503         0.864881
 H         3.511934        -3.211041        -0.777843
 H         4.843980        -2.038019        -0.520987
 H        -0.625834         0.781851        -0.321635
 H        -0.208741        -1.018019         0.145525
 H        -0.505485         0.271923         1.237892
 H         2.085245         1.685171        -1.384888
 H         1.759654         2.415661         0.314717
 H         4.690489        -0.084949         1.397150
 H         2.013825        -0.528572         2.400525
