19
Iteration:  1297charge 0 multiplicity 1
 C         3.733559        -2.560490         0.328946
 C         3.107039        -1.210777         0.155217
 O         2.311242        -0.707815        -1.018443
 C         1.502856         0.203006         0.086136
 C         0.081383        -0.071580         0.362207
 C         2.134032         1.543350        -0.175803
 O         3.560858         1.269519        -0.192367
 C         3.692339         0.125751         0.734712
 C         2.453245        -0.445832         1.273546
 H         3.675734        -2.904748         1.334492
 H         3.025669        -3.236428        -0.263345
 H         4.713198        -2.825774        -0.095916
 H        -0.579593         0.809350         0.139272
 H        -0.195277        -1.012992        -0.177891
 H        -0.218974        -0.221571         1.457048
 H         1.906326         1.969159        -1.200918
 H         1.905704         2.374691         0.587050
 H         4.573913         0.212205         1.329897
 H         1.838900        -0.555172         2.164165
