19
Iteration:  1555
 C         3.926840        -2.430719         0.001163
 C         3.081598        -1.169490         0.145322
 O         2.166483        -0.823046        -0.885279
 C         1.495668         0.165871         0.090160
 C         0.014807         0.106609         0.146806
 C         2.247052         1.508433        -0.119598
 O         3.584125         1.244383         0.154112
 C         3.690168         0.031695         0.778502
 C         2.307843        -0.532347         1.255618
 H         3.437756        -3.372635        -0.303924
 H         4.447497        -2.108645        -0.843438
 H         4.578780        -2.533190         0.890154
 H        -0.415573         1.075125        -0.085566
 H        -0.256848        -0.402666        -0.779269
 H        -0.432540        -0.259505         1.076013
 H         2.126442         1.963207        -1.098166
 H         1.847368         2.287292         0.617782
 H         4.532303        -0.173801         1.420468
 H         1.999619        -0.789761         2.330922
