19
Iteration:  3622
 C         3.852065        -2.511408        -0.017726
 C         2.946320        -1.287257         0.213789
 O         2.427053        -0.570530        -0.965002
 C         1.571471         0.209142        -0.162387
 C         0.168977         0.231898        -0.450562
 C         2.359184         1.499681        -0.054980
 O         3.582613         1.164672         0.610895
 C         3.449283        -0.132396         1.207870
 C         2.074263        -0.562368         1.197138
 H         3.506704        -3.531276        -0.106814
 H         4.560841        -2.190745        -0.861063
 H         4.415859        -2.418440         0.897329
 H         0.009815         0.337851        -1.538202
 H        -0.432450        -0.690881        -0.124691
 H        -0.229306         1.140333         0.100459
 H         2.538174         1.898746        -1.126732
 H         1.920233         2.351572         0.463026
 H         4.176180        -0.499817         1.901695
 H         1.366853        -0.681332         1.982089
