19
Iteration:   823
 C         3.991355        -2.313046        -0.112958
 C         3.062450        -1.210874         0.256272
 O         2.145377        -0.836528        -0.770356
 C         1.512934         0.147728         0.076265
 C        -0.008501         0.206171         0.332030
 C         2.161999         1.431479        -0.312722
 O         3.629032         1.110782        -0.043240
 C         3.677965        -0.012978         0.806382
 C         2.291535        -0.424790         1.332371
 H         4.588951        -2.579556         0.759040
 H         3.515007        -3.333599        -0.338035
 H         4.726329        -1.890361        -0.826860
 H        -0.567192         0.838029        -0.400557
 H        -0.383137        -0.840779         0.415062
 H        -0.162159         0.628334         1.301927
 H         2.189348         1.535726        -1.384088
 H         1.794696         2.335660         0.228167
 H         4.613324         0.194993         1.472589
 H         2.056481        -0.579915         2.356818
