19
Iteration:  2941charge 0 multiplicity 1
 C         3.655811        -2.545812        -0.051732
 C         3.087394        -1.169030         0.254186
 O         2.431254        -0.660234        -0.890736
 C         1.562774         0.286096        -0.104741
 C         0.207732         0.099355        -0.546550
 C         2.314781         1.532279         0.089357
 O         3.620371         1.269865         0.548296
 C         3.497418        -0.092971         1.139550
 C         2.103815        -0.592925         1.174211
 H         2.960575        -3.268749        -0.316444
 H         4.291338        -2.399705        -0.936507
 H         4.362477        -2.797726         0.703720
 H         0.272833        -0.533009        -1.453621
 H        -0.426686        -0.508605         0.186823
 H        -0.289635         1.074478        -0.747591
 H         2.446719         2.031915        -0.885887
 H         1.793781         2.249709         0.773625
 H         4.309323        -0.346819         1.867118
 H         1.348892        -0.861871         1.958754
