19
Iteration:  1113charge 0 multiplicity 1
 C         3.469931        -2.681806         0.082300
 C         3.266652        -1.133256         0.236999
 O         2.255795        -0.773691        -0.747201
 C         1.619221         0.117453         0.222572
 C         0.036661        -0.130212         0.112594
 C         2.040191         1.520814        -0.159496
 O         3.586214         1.380111        -0.106936
 C         3.794712         0.259213         0.652255
 C         2.591574        -0.382426         1.316382
 H         4.121730        -3.109877         0.818749
 H         2.410919        -3.129139         0.160028
 H         3.789006        -2.944294        -0.956102
 H        -0.177220        -0.425844        -0.917719
 H        -0.144415        -0.923198         0.806125
 H        -0.587894         0.746863         0.297860
 H         1.689418         1.860585        -1.178533
 H         1.703968         2.288926         0.621877
 H         4.688282         0.225724         1.273964
 H         2.265200        -0.528222         2.276959
