19
Iteration:  2372
 C         3.743459        -2.529554        -0.199102
 C         3.141344        -1.253118         0.118387
 O         2.537771        -0.455095        -1.047921
 C         1.568961         0.220278        -0.062692
 C         0.133122         0.156296        -0.547134
 C         2.148504         1.577597         0.297971
 O         3.562938         1.232875         0.771510
 C         3.527906        -0.135415         1.133903
 C         2.123262        -0.729480         1.099949
 H         3.040376        -3.308708        -0.040709
 H         4.048580        -2.480397        -1.250190
 H         4.650459        -2.702754         0.361764
 H        -0.220687         1.131995        -0.976912
 H         0.028702        -0.673083        -1.301739
 H        -0.475772        -0.047445         0.370095
 H         2.105629         2.170896        -0.656467
 H         1.694889         2.011150         1.165978
 H         4.259796        -0.251950         1.975763
 H         1.672921        -1.372191         1.800838
