19
Iteration:  1725charge 0 multiplicity 1
 C         3.797979        -2.494290        -0.134052
 C         3.121239        -1.199775         0.138100
 O         2.251359        -0.735348        -0.892841
 C         1.604767         0.108529         0.036798
 C         0.080020         0.126607        -0.052139
 C         2.152119         1.508705        -0.058439
 O         3.525123         1.326815         0.400481
 C         3.703997         0.041860         0.887857
 C         2.340759        -0.584796         1.243768
 H         3.849497        -2.611345        -1.227456
 H         4.764763        -2.515011         0.429421
 H         3.131881        -3.260887         0.254886
 H        -0.169048        -0.732773        -0.674542
 H        -0.577391         0.147698         0.774324
 H        -0.198515         0.947075        -0.722532
 H         2.092297         1.971268        -1.089833
 H         1.725684         2.281465         0.671418
 H         4.453177        -0.136072         1.626404
 H         1.942006        -1.042502         2.205324
