19
Iteration:  2334
 C         3.964200        -2.379910        -0.161732
 C         3.067098        -1.143280         0.021674
 O         2.425298        -0.531787        -1.131511
 C         1.554750         0.248312        -0.042819
 C         0.114466         0.197665        -0.378109
 C         2.320553         1.530266         0.165587
 O         3.567384         1.152432         0.918012
 C         3.422873        -0.241783         1.120709
 C         2.003068        -0.751036         1.028473
 H         3.704734        -3.405819        -0.583248
 H         4.617057        -2.033548        -1.015969
 H         4.554864        -2.470566         0.778593
 H        -0.152627         0.559861        -1.349314
 H        -0.248992        -0.806058        -0.263345
 H        -0.404070         0.830825         0.344877
 H         2.533648         1.908313        -0.820331
 H         1.916350         2.459539         0.629068
 H         3.932618        -0.690893         1.945565
 H         1.345741        -1.210559         1.826537
