19
Iteration:  2360charge 0 multiplicity 1
 C         3.847711        -2.489535        -0.142195
 C         3.082577        -1.121155         0.018350
 O         2.441748        -0.434993        -1.050425
 C         1.579752         0.225050        -0.088903
 C         0.112018         0.138690        -0.508459
 C         2.242421         1.576695         0.255582
 O         3.570079         1.190988         0.789962
 C         3.495465        -0.227420         1.166405
 C         2.104951        -0.762391         1.104170
 H         3.382788        -3.479910        -0.086505
 H         4.285543        -2.505582        -1.124547
 H         4.638101        -2.451745         0.591249
 H        -0.264188         1.000855        -1.120208
 H        -0.150163        -0.815722        -1.031751
 H        -0.497662         0.127709         0.405096
 H         2.473987         2.249861        -0.601331
 H         1.669779         2.231792         0.912264
 H         4.282002        -0.678410         1.905760
 H         1.462077        -1.252705         1.778171
