19
Iteration:  3718charge 0 multiplicity 1
 C         3.511682        -2.562982         0.024969
 C         3.098608        -1.105679         0.187432
 O         2.525767        -0.572946        -1.034891
 C         1.606307         0.204935        -0.073339
 C         0.128409        -0.001613        -0.407654
 C         2.376580         1.533795         0.027611
 O         3.650653         1.198540         0.540052
 C         3.524700        -0.027463         1.236149
 C         2.101923        -0.489740         1.126583
 H         2.779278        -3.111488        -0.499669
 H         4.534134        -2.555423        -0.534861
 H         3.618790        -3.135678         0.976476
 H        -0.529308         0.818254        -0.627919
 H         0.107554        -0.497470        -1.380991
 H        -0.421940        -0.741169         0.178926
 H         2.419348         2.040191        -0.920496
 H         1.707620         2.221681         0.595199
 H         4.392189        -0.093860         1.914853
 H         1.452383        -0.967089         1.871992
