19
Iteration:  2799
 C         3.564863        -2.566954        -0.082518
 C         3.093486        -1.132335         0.178063
 O         2.621955        -0.485110        -0.929590
 C         1.607632         0.264054        -0.117067
 C         0.075682        -0.085996        -0.483405
 C         2.274343         1.658849         0.152230
 O         3.617671         1.214336         0.569863
 C         3.560743        -0.044134         1.122349
 C         2.084242        -0.660188         1.108930
 H         2.791054        -3.217460        -0.448660
 H         4.510691        -2.709725        -0.650416
 H         3.916835        -2.800495         0.953878
 H        -0.252741        -0.785354         0.318007
 H        -0.571199         0.775817        -0.379147
 H        -0.125888        -0.501033        -1.512098
 H         2.417947         2.346050        -0.697110
 H         1.883524         2.192400         1.060806
 H         4.103971        -0.403136         1.967810
 H         1.421862        -1.158484         1.713378
