19
Iteration:   756charge 0 multiplicity 1
 C         3.547494        -2.624906         0.107490
 C         3.090548        -1.167101         0.124410
 O         2.176066        -0.800305        -0.900294
 C         1.511959         0.131469         0.200428
 C         0.043896        -0.145742         0.162997
 C         2.174750         1.542555        -0.027561
 O         3.611168         1.477181         0.099988
 C         3.902565         0.190731         0.561941
 C         2.509116        -0.426890         1.188570
 H         4.489528        -2.645861         0.588848
 H         2.877487        -3.207022         0.871777
 H         3.720993        -3.066624        -0.867577
 H        -0.195466        -0.251065        -0.899199
 H        -0.003812        -0.996969         0.772915
 H        -0.709361         0.560132         0.468657
 H         1.945905         1.776757        -1.045179
 H         1.885915         2.317279         0.683096
 H         4.699440         0.011894         1.269603
 H         2.377949        -0.725228         2.237546
