19
Iteration:  1961charge 0 multiplicity 1
 C         3.950135        -2.375460        -0.082457
 C         3.162093        -1.233837         0.150536
 O         2.249191        -0.739111        -0.989547
 C         1.491721         0.120759         0.089969
 C         0.123628         0.339388        -0.289159
 C         2.177622         1.494168         0.111748
 O         3.544327         1.201178         0.484637
 C         3.599239        -0.069755         0.983475
 C         2.196178        -0.671096         1.108695
 H         4.489109        -2.265751        -0.989344
 H         4.793571        -2.613418         0.640872
 H         3.375575        -3.285192         0.078814
 H        -0.139342        -0.320400        -1.169145
 H        -0.432517         0.033637         0.642698
 H        -0.102791         1.408874        -0.480306
 H         2.075931         1.981316        -0.863106
 H         1.689667         2.302759         0.837041
 H         4.469379        -0.247747         1.573939
 H         1.720122        -1.050934         2.045128
