19
Iteration:  1335charge 0 multiplicity 1
 C         3.761001        -2.580545         0.128078
 C         3.111828        -1.124683         0.144234
 O         2.098813        -0.922314        -0.842737
 C         1.534911         0.172952         0.182912
 C         0.023829        -0.033639         0.179304
 C         2.196320         1.525212        -0.238760
 O         3.584495         1.365898         0.000718
 C         3.789646         0.169499         0.677088
 C         2.459818        -0.369236         1.313225
 H         4.205069        -2.739287         1.199866
 H         2.862029        -3.236974         0.098420
 H         4.540953        -2.718560        -0.639249
 H        -0.443935         0.371486        -0.724906
 H        -0.122537        -1.127640         0.142261
 H        -0.364300         0.308347         1.128332
 H         2.076382         1.682300        -1.306279
 H         1.871362         2.349387         0.360623
 H         4.697072        -0.106806         1.270022
 H         2.259975        -0.397386         2.405566
