19
Iteration:  3250
 C         3.816923        -2.457726         0.001186
 C         3.065376        -1.221940         0.264128
 O         2.521665        -0.694103        -1.023748
 C         1.596889         0.133608        -0.205219
 C         0.162523         0.287196        -0.510808
 C         2.294355         1.469836         0.079465
 O         3.609839         1.175224         0.528381
 C         3.422682        -0.078661         1.229981
 C         1.981302        -0.574360         1.222734
 H         3.205559        -3.316809        -0.260353
 H         4.518082        -2.310117        -0.936267
 H         4.473351        -2.522342         0.945347
 H        -0.051794         1.067152        -1.310958
 H        -0.366611        -0.626635        -0.608082
 H        -0.141202         0.846018         0.405785
 H         2.360451         2.047909        -0.876908
 H         1.603907         2.065366         0.636692
 H         4.035114        -0.119660         2.110278
 H         1.233419        -0.939513         1.956399
