19
Iteration:  4872
 C         3.786252        -2.503383        -0.102327
 C         3.135629        -1.178746         0.008745
 O         2.525494        -0.520289        -1.089444
 C         1.667761         0.190123        -0.115207
 C         0.170158         0.215191        -0.480674
 C         2.162975         1.543049         0.350343
 O         3.507183         1.210259         0.743741
 C         3.433582        -0.110176         1.136395
 C         2.126258        -0.723925         1.035727
 H         2.919473        -3.232962        -0.177166
 H         4.574170        -2.558858        -0.809755
 H         4.133944        -2.793037         0.872591
 H        -0.031880        -0.833901        -0.647769
 H        -0.452888         0.532482         0.463442
 H        -0.092861         0.889512        -1.258369
 H         2.356946         2.269255        -0.451993
 H         1.588846         1.941561         1.238787
 H         4.275167        -0.533202         1.701738
 H         1.469226        -1.305299         1.715476
