19
Iteration:  3548charge 0 multiplicity 1
 C         3.600897        -2.620435         0.111979
 C         3.168044        -1.250984         0.138021
 O         2.559569        -0.631216        -0.986934
 C         1.611561         0.192096        -0.039871
 C         0.240216         0.205437        -0.487023
 C         2.155781         1.599123         0.135989
 O         3.480809         1.242606         0.561513
 C         3.577512        -0.078972         1.036232
 C         2.185497        -0.604552         1.125622
 H         2.820771        -2.891960        -0.770146
 H         4.442961        -2.725040        -0.538393
 H         3.370995        -2.952137         1.098098
 H         0.295387         0.162643        -1.535062
 H        -0.494182        -0.617585        -0.171882
 H        -0.113428         1.184390        -0.161403
 H         2.267715         2.060649        -0.909577
 H         1.574164         2.320959         0.812696
 H         4.207543        -0.086331         1.889689
 H         1.568043        -0.946875         1.958762
