19
Iteration:  1937charge 0 multiplicity 1
 C         3.928747        -2.500199        -0.195562
 C         3.174531        -1.239752         0.117400
 O         2.286773        -0.717810        -0.928206
 C         1.526370         0.073731         0.016753
 C        -0.032839         0.345649        -0.265520
 C         2.221093         1.462292        -0.056803
 O         3.584132         1.362004         0.572059
 C         3.523298        -0.032128         1.013560
 C         2.291166        -0.688488         1.287512
 H         4.927716        -2.219629        -0.558032
 H         4.194419        -3.015442         0.760263
 H         3.432131        -3.365566        -0.670322
 H        -0.331091        -0.283754        -1.108911
 H        -0.645301         0.091181         0.648781
 H        -0.192853         1.385579        -0.548055
 H         2.259044         1.955363        -1.038070
 H         1.525549         2.123770         0.573452
 H         4.428111        -0.305463         1.503490
 H         1.925829        -1.132462         2.245180
