19
Iteration:  2725
 C         3.935461        -2.419417        -0.113714
 C         3.102743        -1.214368         0.102554
 O         2.324009        -0.595800        -0.969614
 C         1.551548         0.156954        -0.083363
 C         0.164189         0.224254        -0.492004
 C         2.312545         1.508148         0.065382
 O         3.553382         1.233276         0.768253
 C         3.462231        -0.205069         1.138771
 C         2.062315        -0.618995         1.148103
 H         3.292401        -3.292106        -0.279436
 H         4.680631        -2.354851        -0.997740
 H         4.573675        -2.574362         0.809610
 H        -0.277289         1.141610        -0.112733
 H         0.119269         0.147222        -1.588954
 H        -0.390433        -0.616074        -0.153979
 H         2.625361         1.909688        -0.955958
 H         1.740711         2.205054         0.651072
 H         4.167793        -0.392733         1.915324
 H         1.381040        -0.957194         1.870218
