19
Iteration:  2170charge 0 multiplicity 1
 C         3.855533        -2.512692        -0.344465
 C         3.130337        -1.153720         0.060592
 O         2.344855        -0.591440        -1.009427
 C         1.574170         0.138038        -0.078897
 C         0.111605         0.187765        -0.425964
 C         2.257502         1.566212         0.134496
 O         3.484359         1.281452         0.938656
 C         3.578754        -0.073322         1.171167
 C         2.173762        -0.738911         1.125446
 H         4.932115        -2.327552        -0.316926
 H         3.701485        -3.266909         0.531046
 H         3.442473        -3.027737        -1.252937
 H        -0.275827         1.195207        -0.516981
 H         0.108814        -0.127301        -1.473824
 H        -0.650940        -0.449299         0.110169
 H         2.396580         1.888894        -0.875942
 H         1.842094         2.421217         0.703158
 H         4.456843        -0.305129         1.850215
 H         1.644291        -1.402922         1.796435
