19
Iteration:  3677
 C         3.670639        -2.642712         0.131316
 C         3.076399        -1.264247         0.174332
 O         2.444900        -0.635569        -1.079198
 C         1.579703         0.212385        -0.076164
 C         0.172765         0.248471        -0.517152
 C         2.240883         1.492186         0.097829
 O         3.508676         1.282158         0.600748
 C         3.596010        -0.062213         1.041428
 C         2.217702        -0.523574         1.201882
 H         2.777204        -3.289450         0.160706
 H         4.379124        -2.660598        -0.749777
 H         4.281234        -2.856861         0.964182
 H         0.131637         1.254388        -0.919897
 H         0.263056        -0.620686        -1.360195
 H        -0.654480         0.076609         0.249791
 H         2.341696         2.074133        -0.948804
 H         1.757630         2.156193         0.863314
 H         4.279814        -0.396909         1.860691
 H         1.587009        -1.008268         2.006992
