19
Iteration:  1822charge 0 multiplicity 1
 C         3.768923        -2.581134        -0.141670
 C         3.254540        -1.233699         0.085980
 O         2.275070        -0.664362        -0.968651
 C         1.536374         0.121058         0.105237
 C        -0.017424         0.174174        -0.293671
 C         2.058665         1.566038         0.198167
 O         3.572907         1.342127         0.404979
 C         3.720278        -0.005008         0.922592
 C         2.405999        -0.647767         1.304690
 H         3.297788        -3.148478         0.640308
 H         3.493154        -2.895042        -1.199057
 H         4.847322        -2.571574        -0.070629
 H        -0.669590        -0.494635         0.283184
 H        -0.493696         1.128421        -0.365452
 H        -0.104072        -0.241547        -1.291720
 H         2.142292         2.149007        -0.732986
 H         1.579970         2.150538         0.974592
 H         4.661850        -0.121727         1.381072
 H         2.000595        -0.927282         2.336923
