19
Iteration:   876
 C         3.791338        -2.562610         0.059097
 C         3.158446        -1.157621         0.149394
 O         2.083417        -0.855832        -0.780163
 C         1.537028         0.134233         0.211481
 C         0.001221         0.060786         0.195074
 C         2.162578         1.452935        -0.210453
 O         3.550591         1.311073         0.024360
 C         3.807302         0.134821         0.689506
 C         2.488030        -0.375429         1.260082
 H         3.941350        -3.102127         0.954290
 H         3.028855        -3.206644        -0.555265
 H         4.700013        -2.590859        -0.537076
 H        -0.313970         0.730959        -0.637996
 H        -0.344113        -0.987188         0.200958
 H        -0.498743         0.550143         1.045195
 H         1.989149         1.671524        -1.295852
 H         1.710852         2.342673         0.414147
 H         4.934145         0.186018         1.052331
 H         2.399778        -0.531398         2.305516
