19
Iteration:   173charge 0 multiplicity 1
 C         3.454120        -2.572848         0.049835
 C         3.199008        -1.152280         0.152137
 O         2.272531        -0.730964        -0.895698
 C         1.614563         0.139567         0.153633
 C         0.119693        -0.177775         0.161959
 C         2.105345         1.525706        -0.071696
 O         3.620276         1.446922         0.053638
 C         3.769988         0.143110         0.737480
 C         2.466262        -0.475158         1.249968
 H         4.062857        -3.035567         0.834635
 H         2.481049        -3.043642         0.106902
 H         3.991806        -2.851469        -0.952227
 H        -0.177927        -0.297463        -0.962535
 H        -0.013798        -1.102418         0.782847
 H        -0.536165         0.699288         0.474938
 H         1.806362         1.881472        -1.102048
 H         1.583416         2.218796         0.656035
 H         4.789835         0.155331         1.290603
 H         2.037211        -0.639731         2.243293
