19
Iteration:  2399
 C         3.535008        -2.595786        -0.317219
 C         3.354244        -1.187921         0.096566
 O         2.575880        -0.474739        -0.967971
 C         1.656605         0.119918        -0.049630
 C         0.233718         0.132805        -0.627772
 C         2.057162         1.506736         0.321823
 O         3.485383         1.321239         0.681495
 C         3.521954        -0.086686         1.214724
 C         2.179063        -0.670905         1.221708
 H         2.532515        -3.182098        -0.342791
 H         3.828473        -2.644176        -1.426544
 H         4.358942        -3.041276         0.305148
 H        -0.153633         1.151836        -0.607189
 H         0.186119        -0.286292        -1.639134
 H        -0.336733        -0.340648         0.216582
 H         1.804845         2.177835        -0.519857
 H         1.488502         1.872398         1.264373
 H         4.312806        -0.185129         1.983950
 H         1.607515        -1.081845         2.148219
