19
Iteration:  3931
 C         3.635418        -2.573208         0.286270
 C         3.154532        -1.212473         0.138597
 O         2.508702        -0.612811        -1.048029
 C         1.602640         0.188059        -0.169451
 C         0.106916         0.225675        -0.370019
 C         2.293543         1.561438        -0.029482
 O         3.577494         1.148476         0.462400
 C         3.524134        -0.061983         1.104442
 C         2.129817        -0.524529         1.125823
 H         2.894408        -3.332514        -0.181769
 H         4.683175        -2.768495         0.105954
 H         3.442586        -2.935951         1.367715
 H        -0.184564        -0.640908        -1.111533
 H        -0.380164        -0.000046         0.568198
 H        -0.148876         1.188880        -0.805004
 H         2.461414         2.153662        -0.989121
 H         1.742332         2.342408         0.582949
 H         4.264421        -0.095508         1.978762
 H         1.540275        -1.122471         1.922374
