19
Iteration:  1978
 C         3.953868        -2.437680        -0.073321
 C         3.004663        -1.203442         0.037209
 O         2.319799        -0.635135        -0.971294
 C         1.562396         0.158273        -0.045170
 C        -0.005457         0.190109        -0.266265
 C         2.274284         1.498380         0.150183
 O         3.629750         1.266180         0.432858
 C         3.566871        -0.086199         1.023304
 C         2.155787        -0.672983         1.258281
 H         4.145279        -2.644577        -1.188139
 H         4.900463        -2.312495         0.453878
 H         3.514676        -3.391374         0.349790
 H        -0.227109        -0.425128        -1.110756
 H        -0.563257        -0.167388         0.589685
 H        -0.194133         1.179372        -0.672587
 H         2.263152         2.210942        -0.704575
 H         1.834008         1.982936         0.987483
 H         4.323007        -0.145238         1.869192
 H         1.708516        -1.146876         2.138785
