19
Iteration:  4178
 C         3.888040        -2.548723         0.103500
 C         3.110827        -1.187401         0.134712
 O         2.388300        -0.635217        -1.006298
 C         1.503010         0.208716        -0.068329
 C         0.098021         0.319474        -0.457844
 C         2.330980         1.450468        -0.012126
 O         3.636245         1.143791         0.522119
 C         3.431967        -0.088384         1.166121
 C         2.074681        -0.568063         1.177201
 H         3.502808        -3.262094        -0.581487
 H         5.003251        -2.563087        -0.264824
 H         3.788752        -2.853978         1.140511
 H        -0.043152         1.428787        -0.239444
 H        -0.079014         0.126023        -1.526958
 H        -0.620845        -0.190759         0.204573
 H         2.494275         1.858190        -1.003280
 H         1.759470         2.039256         0.675629
 H         4.149360        -0.111752         1.980280
 H         1.451620        -1.050199         1.954892
