19
Iteration:  3460charge 0 multiplicity 1
 C         3.741570        -2.492055        -0.025907
 C         3.175649        -1.147654         0.241534
 O         2.559591        -0.732134        -0.934842
 C         1.499943         0.201725        -0.168760
 C        -0.027530         0.308819        -0.474293
 C         2.374938         1.415760        -0.073483
 O         3.581525         1.267064         0.704667
 C         3.453254        -0.071766         1.200374
 C         2.091956        -0.616598         1.144305
 H         2.879754        -3.327028        -0.112599
 H         4.214305        -2.541398        -1.047529
 H         4.537283        -2.987077         0.535797
 H        -0.110678         1.119789        -1.153271
 H        -0.304920        -0.592383        -1.052475
 H        -0.570573         0.359231         0.487972
 H         2.656016         1.731665        -1.166599
 H         1.992570         2.461152         0.162059
 H         4.104033        -0.294610         2.045608
 H         1.680561        -1.072018         1.985888
