19
Iteration:  2260
 C         3.788666        -2.426135        -0.268430
 C         3.074407        -1.252364         0.044514
 O         2.440666        -0.453198        -0.978650
 C         1.538058         0.206491        -0.007030
 C         0.166010         0.161129        -0.615660
 C         2.189787         1.539652         0.393795
 O         3.557649         1.230232         0.761523
 C         3.530914        -0.202179         1.160156
 C         2.168788        -0.715134         1.114215
 H         3.778207        -2.539354        -1.389231
 H         4.841197        -2.287704        -0.111489
 H         3.464228        -3.361798         0.149530
 H         0.321667        -0.109119        -1.691526
 H        -0.283664        -0.815578        -0.245995
 H        -0.539722         0.977581        -0.486409
 H         2.271093         2.178994        -0.510027
 H         1.594018         2.125392         1.137745
 H         4.333323        -0.373635         1.908961
 H         1.814881        -1.363280         1.980828
