19
Iteration:  2723
 C         3.947179        -2.400400        -0.126701
 C         3.093588        -1.227473         0.112537
 O         2.334108        -0.602586        -0.972510
 C         1.552333         0.166254        -0.087977
 C         0.167015         0.223349        -0.491645
 C         2.331571         1.510909         0.067240
 O         3.539140         1.231521         0.751921
 C         3.457112        -0.204476         1.154636
 C         2.048122        -0.617581         1.144813
 H         3.289875        -3.282415        -0.253483
 H         4.667819        -2.285253        -1.004231
 H         4.539662        -2.594647         0.833605
 H        -0.247358         1.159122        -0.122586
 H         0.100173         0.106958        -1.535143
 H        -0.407936        -0.646201        -0.071517
 H         2.587235         1.896977        -0.934493
 H         1.806701         2.212102         0.685006
 H         4.190282        -0.523099         1.913753
 H         1.382313        -0.919019         1.866229
