19
Iteration:  2487
 C         3.975405        -2.429569        -0.108350
 C         3.155498        -1.165533         0.098513
 O         2.471817        -0.534280        -1.103224
 C         1.587370         0.134608        -0.093722
 C         0.067458         0.287730        -0.349258
 C         2.286963         1.494219         0.105473
 O         3.509174         1.138308         0.779655
 C         3.404346        -0.173300         1.158599
 C         2.016791        -0.692303         1.021342
 H         3.540354        -3.117573        -0.909281
 H         4.913058        -1.983001        -0.465042
 H         4.243545        -3.027195         0.796588
 H        -0.417952         0.073253         0.659671
 H        -0.174149         1.368020        -0.579546
 H        -0.505566        -0.320193        -1.086220
 H         2.402525         2.102990        -0.781319
 H         1.736553         1.991967         0.930195
 H         4.166258        -0.340547         2.002585
 H         1.522311        -1.290632         1.732818
