19
Iteration:   261
 C         4.054430        -2.339606         0.024593
 C         3.141900        -1.199897         0.138984
 O         2.086287        -0.923076        -0.942149
 C         1.487243         0.081527         0.155048
 C         0.002883         0.256211         0.342973
 C         2.251631         1.378709        -0.203973
 O         3.654821         1.219481        -0.039567
 C         3.607620         0.043325         0.789244
 C         2.225878        -0.434719         1.302218
 H         4.765073        -2.289730         0.910696
 H         3.517080        -3.280949         0.041426
 H         4.605495        -2.073753        -0.934041
 H        -0.466181         1.034721        -0.372984
 H        -0.707312        -0.596481         0.194835
 H        -0.159583         0.687757         1.404355
 H         2.110809         1.682853        -1.252378
 H         1.903404         2.201346         0.486058
 H         4.457277        -0.019915         1.478926
 H         1.898858        -0.934465         2.252817
