19
Iteration:  4948
 C         3.928225        -2.388055        -0.399791
 C         3.092644        -1.232693         0.141389
 O         2.506097        -0.641538        -0.987771
 C         1.608505         0.203567        -0.086697
 C         0.098081         0.213430        -0.494910
 C         2.318156         1.531299         0.123412
 O         3.572583         1.248389         0.827192
 C         3.386379        -0.194815         1.317248
 C         1.934487        -0.713718         1.162984
 H         3.449205        -2.780701        -1.402656
 H         4.763376        -1.817905        -0.822844
 H         4.254705        -3.183890         0.302289
 H        -0.414807         0.007984         0.444359
 H        -0.309172         1.373005        -0.679003
 H        -0.125273        -0.418401        -1.351681
 H         2.534924         1.976544        -0.866715
 H         1.792371         2.190426         0.792570
 H         4.118793        -0.634696         2.037951
 H         1.329719        -0.861127         2.080747
