19
Iteration:  3819charge 0 multiplicity 1
 C         3.868920        -2.627835         0.194515
 C         3.147390        -1.274313         0.133645
 O         2.435943        -0.760081        -0.970248
 C         1.513964         0.203872        -0.089172
 C         0.096289         0.339740        -0.412763
 C         2.352334         1.593727        -0.034948
 O         3.619246         1.252922         0.539800
 C         3.401045        -0.129198         1.060890
 C         2.031755        -0.543476         1.104116
 H         3.111361        -3.403569         0.349570
 H         4.472253        -2.655808        -0.818059
 H         4.669791        -2.711083         0.888160
 H        -0.463965        -0.232614         0.292912
 H        -0.163775         1.463552        -0.475829
 H        -0.294300        -0.095111        -1.361494
 H         2.579792         2.058032        -1.075332
 H         1.822529         2.353835         0.693210
 H         3.956371        -0.171385         1.962701
 H         1.537796        -0.654883         2.067280
