19
Iteration:  2172
 C         3.829152        -2.527917        -0.334732
 C         3.129310        -1.143712         0.044663
 O         2.347336        -0.575132        -1.019036
 C         1.569463         0.129662        -0.072079
 C         0.122058         0.175899        -0.429848
 C         2.236098         1.571939         0.127772
 O         3.480692         1.279007         0.944098
 C         3.608744        -0.088343         1.186828
 C         2.182068        -0.741935         1.117800
 H         4.894374        -2.324957        -0.381967
 H         3.721595        -3.172694         0.508149
 H         3.439896        -3.001515        -1.191250
 H        -0.219722         1.213299        -0.510489
 H         0.122290        -0.202820        -1.474806
 H        -0.614947        -0.435312         0.139195
 H         2.418047         1.922465        -0.870175
 H         1.894038         2.398702         0.667562
 H         4.373370        -0.167185         1.914328
 H         1.644639        -1.401430         1.843479
