19
Iteration:  3455charge 0 multiplicity 1
 C         3.770863        -2.517401        -0.012599
 C         3.219036        -1.103120         0.236370
 O         2.518921        -0.740812        -0.983022
 C         1.552843         0.179167        -0.134848
 C        -0.000883         0.332037        -0.497358
 C         2.346037         1.439937        -0.089922
 O         3.549945         1.241700         0.712641
 C         3.439445        -0.059055         1.194801
 C         2.101461        -0.619481         1.177194
 H         2.928787        -3.066896        -0.154269
 H         4.140149        -2.596563        -1.055492
 H         4.496915        -3.061547         0.634889
 H        -0.144756         1.242025        -1.201556
 H        -0.454448        -0.548570        -0.963746
 H        -0.416531         0.463660         0.511373
 H         2.627562         1.547957        -1.125169
 H         1.923496         2.389648         0.156896
 H         4.011211        -0.467108         2.057668
 H         1.694560        -1.146658         2.106551
