19
Iteration:  4505
 C         3.726339        -2.459183         0.041974
 C         3.011298        -1.214997         0.155482
 O         2.482976        -0.653657        -1.002616
 C         1.542053         0.220410        -0.049057
 C         0.148907         0.215667        -0.503096
 C         2.381442         1.600652         0.000764
 O         3.611607         1.191872         0.611508
 C         3.453773        -0.085679         1.142518
 C         2.071318        -0.714627         1.191760
 H         3.336154        -3.258425        -0.564023
 H         4.690639        -2.316663        -0.604396
 H         3.979432        -2.647091         1.117865
 H         0.048174         0.839341        -1.475877
 H        -0.009581        -0.863754        -0.556263
 H        -0.590793         0.616304         0.268656
 H         2.578040         1.930957        -1.038060
 H         1.877544         2.333658         0.613061
 H         4.202717        -0.287601         1.903124
 H         1.402604        -1.112719         1.947863
