19
Iteration:  1681charge 0 multiplicity 1
 C         3.637471        -2.632953        -0.000874
 C         3.212599        -1.209149         0.047763
 O         2.325464        -0.598711        -0.901166
 C         1.538500         0.179423         0.123605
 C         0.063228        -0.051043        -0.103269
 C         2.118735         1.613727         0.132308
 O         3.573668         1.343696         0.214959
 C         3.740768         0.031505         0.871238
 C         2.371899        -0.566689         1.161205
 H         4.703213        -2.526715        -0.265791
 H         3.429495        -3.145858         0.984253
 H         3.033916        -3.092767        -0.766142
 H        -0.041637        -0.713204        -0.966927
 H        -0.323084        -0.484915         0.796673
 H        -0.484122         0.865556        -0.339350
 H         1.927940         2.227334        -0.784385
 H         1.515189         2.035235         0.973637
 H         4.651635         0.062806         1.498162
 H         2.057231        -0.923112         2.167575
