19
Iteration:  4367
 C         3.873492        -2.518896         0.130094
 C         3.120621        -1.235175         0.259431
 O         2.417676        -0.747980        -0.985313
 C         1.515680         0.178760        -0.158756
 C         0.029924         0.324990        -0.437876
 C         2.328001         1.479775        -0.106665
 O         3.659496         1.215529         0.579528
 C         3.504204        -0.117160         1.164843
 C         2.010230        -0.489655         1.101653
 H         3.345080        -3.156220        -0.598090
 H         4.793692        -2.406225        -0.422610
 H         4.036758        -2.985373         1.153561
 H        -0.525166         0.103552         0.526980
 H        -0.188056         1.287874        -0.832883
 H        -0.350065        -0.326357        -1.250327
 H         2.620228         2.111407        -0.961469
 H         1.854012         2.091749         0.703184
 H         4.285108        -0.335258         1.909841
 H         1.359400        -0.749108         1.945847
