19
Iteration:  2574charge 0 multiplicity 1
 C         3.716413        -2.495944        -0.236002
 C         3.112442        -1.187311         0.136855
 O         2.598780        -0.411377        -0.970227
 C         1.596549         0.244084        -0.043567
 C         0.164659        -0.012432        -0.501644
 C         2.232139         1.618880         0.219069
 O         3.543859         1.156665         0.730576
 C         3.502477        -0.123256         1.174897
 C         2.045351        -0.650027         1.036832
 H         2.993627        -3.263532        -0.216335
 H         4.100844        -2.381136        -1.220271
 H         4.450801        -2.847880         0.462958
 H        -0.044102        -1.102904        -0.301032
 H        -0.494420         0.390828         0.330493
 H        -0.101347         0.371795        -1.479822
 H         2.207634         2.111912        -0.761232
 H         1.686380         2.201635         0.942366
 H         4.128257        -0.491194         2.013519
 H         1.408563        -1.037581         1.747758
