19
Iteration:  1972charge 0 multiplicity 1
 C         3.952879        -2.426737        -0.050961
 C         3.094157        -1.181070         0.095485
 O         2.285748        -0.673616        -0.974313
 C         1.577644         0.141976        -0.009409
 C         0.058409         0.255686        -0.270592
 C         2.220426         1.517084         0.130692
 O         3.629615         1.246695         0.440379
 C         3.511464        -0.083679         0.982923
 C         2.170572        -0.712372         1.226579
 H         4.164977        -2.464375        -1.099296
 H         4.856445        -2.182175         0.529191
 H         3.464790        -3.379425         0.138106
 H        -0.214029        -0.418808        -1.130864
 H        -0.622672        -0.061269         0.554978
 H        -0.245434         1.282355        -0.567321
 H         2.195682         2.093653        -0.795288
 H         1.709654         1.991418         1.043907
 H         4.336323        -0.407127         1.582930
 H         1.729981        -1.161707         2.140712
