19
Iteration:  4906charge 0 multiplicity 1
 C         3.950764        -2.430941        -0.165649
 C         3.106156        -1.197320         0.009306
 O         2.432398        -0.526853        -0.992110
 C         1.518566         0.187760        -0.020755
 C         0.065182         0.321234        -0.558344
 C         2.284538         1.509161         0.233581
 O         3.541395         1.190105         0.833625
 C         3.409516        -0.176150         1.103228
 C         2.147857        -0.809984         1.123641
 H         3.556391        -3.114395        -0.908316
 H         4.924026        -2.310525        -0.537757
 H         4.013564        -2.890515         0.823719
 H        -0.577967        -0.459212        -0.190855
 H        -0.436083         1.275482        -0.167483
 H         0.053075         0.184198        -1.627089
 H         2.540082         1.819269        -0.781511
 H         1.667062         2.361728         0.659798
 H         4.305847        -0.495354         1.691164
 H         1.629269        -1.232935         2.000399
