19
Iteration:  1408
 C         3.941762        -2.452747         0.051301
 C         3.092880        -1.257479         0.230042
 O         2.109795        -0.858614        -0.826567
 C         1.475679         0.181469         0.066811
 C         0.002124         0.112099         0.192097
 C         2.241047         1.518489        -0.204378
 O         3.600812         1.221427        -0.032754
 C         3.666353         0.068692         0.778548
 C         2.348447        -0.441252         1.319625
 H         4.916823        -2.035933        -0.000194
 H         3.968045        -3.171260         0.926740
 H         3.755186        -2.703388        -0.961994
 H        -0.365202        -0.916230        -0.140596
 H        -0.071170         0.231435         1.327827
 H        -0.496804         0.913426        -0.395752
 H         2.145254         1.677084        -1.320310
 H         1.982794         2.353955         0.530201
 H         4.616872         0.254793         1.294369
 H         1.996532        -0.575990         2.377429
