19
Iteration:  3770
 C         3.720576        -2.562249         0.072203
 C         3.127759        -1.208141         0.139778
 O         2.395325        -0.724782        -1.007975
 C         1.551772         0.179848        -0.002563
 C         0.128719         0.256722        -0.519653
 C         2.303350         1.550944        -0.004261
 O         3.637364         1.246545         0.571607
 C         3.523855        -0.052533         1.114219
 C         2.127533        -0.555550         1.209046
 H         2.916840        -3.188455        -0.393646
 H         4.735537        -2.631686        -0.333111
 H         3.771973        -3.026415         1.124128
 H        -0.680744         0.553879         0.219070
 H         0.049905         0.814719        -1.409686
 H        -0.138035        -0.748338        -0.809291
 H         2.373995         1.777537        -1.050338
 H         1.717455         2.342291         0.566307
 H         4.279429        -0.127452         1.917784
 H         1.702288        -0.828586         2.160463
