19
Iteration:  3795charge 0 multiplicity 1
 C         3.771650        -2.499000         0.204126
 C         3.000453        -1.259285         0.161161
 O         2.341673        -0.735169        -1.000892
 C         1.576500         0.141035        -0.112586
 C         0.155427         0.380772        -0.484355
 C         2.296420         1.492752        -0.032715
 O         3.609386         1.232942         0.600672
 C         3.587423        -0.040233         1.065497
 C         2.144929        -0.621365         1.159514
 H         3.083597        -3.309469         0.092035
 H         4.692797        -2.410371        -0.567710
 H         4.277919        -2.685981         1.176332
 H        -0.497116         0.100224         0.312865
 H        -0.043438         1.376418        -0.967411
 H        -0.145258        -0.396511        -1.232859
 H         2.427885         1.928404        -1.066244
 H         1.639876         2.111499         0.707708
 H         4.541671        -0.069077         1.651736
 H         1.459737        -1.155638         1.884914
