19
Iteration:  4203
 C         3.782968        -2.574970         0.224699
 C         3.081111        -1.260298         0.188372
 O         2.460917        -0.720225        -1.054681
 C         1.547490         0.236474        -0.115817
 C         0.108126         0.321759        -0.464379
 C         2.289106         1.576300         0.078511
 O         3.579253         1.287797         0.585451
 C         3.518618        -0.106367         1.017687
 C         2.126377        -0.680548         1.082716
 H         3.092530        -3.320576        -0.233295
 H         4.501970        -2.603794        -0.581461
 H         4.201113        -2.869521         1.240895
 H        -0.192403         1.319179         0.085162
 H        -0.149894         0.387441        -1.502510
 H        -0.439327        -0.498010         0.056652
 H         2.436897         1.999127        -0.948137
 H         1.693911         2.243720         0.769989
 H         4.333299        -0.246909         1.718738
 H         1.486529        -1.048125         1.871295
