19
Iteration:  1966
 C         3.936907        -2.394752        -0.053418
 C         3.159308        -1.204362         0.150672
 O         2.262822        -0.704810        -0.987843
 C         1.534243         0.129311         0.045235
 C         0.104888         0.297381        -0.287896
 C         2.189850         1.520230         0.125830
 O         3.602834         1.218653         0.459716
 C         3.516295        -0.076130         0.969670
 C         2.185761        -0.705374         1.165866
 H         4.340139        -2.331409        -1.115166
 H         4.846923        -2.312314         0.570195
 H         3.415316        -3.348575         0.122291
 H        -0.150343        -0.363908        -1.094729
 H        -0.524405         0.046913         0.558160
 H        -0.245113         1.329628        -0.454999
 H         2.096268         2.049947        -0.840953
 H         1.684465         2.082856         0.899850
 H         4.456770        -0.486047         1.473922
 H         1.747819        -1.094607         2.052341
