19
Iteration:   715
 C         3.519681        -2.496773         0.041711
 C         3.077984        -1.153636         0.200464
 O         2.325857        -0.675047        -0.921508
 C         1.574756         0.205567         0.173011
 C         0.167221        -0.225348         0.273888
 C         2.106205         1.509451        -0.132826
 O         3.603218         1.244825        -0.090880
 C         3.773500         0.132205         0.780589
 C         2.408073        -0.391465         1.243641
 H         4.327647        -2.705459         0.727833
 H         2.663467        -3.211018         0.099499
 H         3.845397        -2.615103        -1.030425
 H        -0.510240         0.084428        -0.559904
 H         0.173644        -1.299738         0.617016
 H        -0.206929         0.301299         1.158674
 H         1.753761         1.936976        -1.052265
 H         1.933694         2.254065         0.664648
 H         4.631213         0.380010         1.480233
 H         2.047506        -0.604069         2.217239
