19
Iteration:   837charge 0 multiplicity 1
 C         4.011940        -2.326005        -0.075383
 C         3.040901        -1.235126         0.204396
 O         2.025172        -0.865608        -0.768273
 C         1.525708         0.193793         0.169982
 C         0.079374         0.115214         0.328530
 C         2.309343         1.418942        -0.316423
 O         3.586944         1.116116        -0.066962
 C         3.621957         0.071124         0.853982
 C         2.319740        -0.340760         1.273092
 H         4.507979        -2.667575         0.922044
 H         3.602168        -3.031869        -0.721545
 H         4.788673        -1.892595        -0.774238
 H        -0.523390         0.694053        -0.364591
 H        -0.310447        -0.910655         0.089049
 H        -0.061995         0.386102         1.385462
 H         2.056207         1.637492        -1.336516
 H         2.089908         2.284558         0.235654
 H         4.390026        -0.211695         1.522493
 H         1.796339        -0.478092         2.248376
