19
Iteration:  2027charge 0 multiplicity 1
 C         3.518055        -2.559887        -0.185042
 C         3.078228        -1.154799         0.090654
 O         2.480294        -0.487307        -1.024285
 C         1.657199         0.157973         0.036559
 C         0.166767        -0.070540        -0.298408
 C         2.194337         1.526907         0.081122
 O         3.548577         1.328653         0.609475
 C         3.601118         0.004021         1.123090
 C         2.277605        -0.626866         1.142427
 H         2.770936        -3.178387        -0.628459
 H         4.494953        -2.488367        -0.740653
 H         3.937375        -2.964034         0.749267
 H        -0.069970        -1.137290        -0.547654
 H        -0.375213         0.137062         0.645274
 H        -0.138185         0.559001        -1.157766
 H         2.253446         1.910430        -0.934365
 H         1.707705         2.291860         0.710593
 H         4.399259        -0.251009         1.834446
 H         1.692821        -1.055720         1.937666
