19
Iteration:   233
 C         4.061044        -2.330811        -0.082704
 C         3.087317        -1.289030         0.215265
 O         2.067346        -0.951411        -0.816517
 C         1.520908         0.134941         0.098040
 C         0.011224         0.316234         0.220824
 C         2.173986         1.476970        -0.246673
 O         3.559312         1.202041         0.058682
 C         3.660212        -0.002874         0.811204
 C         2.364845        -0.472836         1.324682
 H         4.927903        -2.162764         0.557718
 H         3.724974        -3.403554        -0.014795
 H         4.331418        -2.073416        -1.068946
 H        -0.503728         0.415638        -0.702704
 H        -0.530122        -0.468117         0.716456
 H        -0.049454         1.163095         0.856298
 H         2.184621         1.770508        -1.302830
 H         1.775917         2.266556         0.398635
 H         4.513512         0.002005         1.435819
 H         2.080256        -0.932535         2.264218
