19
Iteration:  3532
 C         3.566060        -2.644834         0.092985
 C         3.161795        -1.167431         0.146563
 O         2.491677        -0.530324        -1.008201
 C         1.641520         0.164520        -0.072431
 C         0.122275         0.177669        -0.558902
 C         2.243394         1.513414         0.156025
 O         3.610240         1.267492         0.500497
 C         3.546794        -0.016248         1.134248
 C         2.135074        -0.633266         1.138210
 H         2.857533        -3.291437        -0.277350
 H         4.625891        -2.865416        -0.242934
 H         3.703279        -3.003119         1.159669
 H         0.115297         0.337501        -1.703858
 H        -0.284857        -0.787974        -0.354771
 H        -0.528779         0.919647        -0.006037
 H         2.183510         2.248090        -0.627975
 H         1.627392         1.953462         0.952233
 H         4.376300        -0.245902         1.854322
 H         1.748426        -1.182004         2.037948
