19
Iteration:  2167charge 0 multiplicity 1
 C         3.886468        -2.492343        -0.344005
 C         3.138175        -1.174782         0.077929
 O         2.345821        -0.612987        -1.000894
 C         1.577851         0.154685        -0.069700
 C         0.092903         0.202165        -0.425088
 C         2.288435         1.552935         0.150416
 O         3.489319         1.289123         0.924917
 C         3.534463        -0.062673         1.147053
 C         2.165065        -0.733376         1.134778
 H         4.989141        -2.341225        -0.272702
 H         3.680363        -3.325342         0.481890
 H         3.477034        -3.003746        -1.299201
 H        -0.361930         1.206089        -0.491284
 H         0.074125        -0.050087        -1.490237
 H        -0.635769        -0.445870         0.064104
 H         2.432619         1.871486        -0.927409
 H         1.725762         2.400094         0.736556
 H         4.480446        -0.488404         1.721858
 H         1.621868        -1.400369         1.767824
