19
Iteration:  2159
 C         3.938976        -2.443038        -0.291282
 C         3.150031        -1.214896         0.070920
 O         2.358839        -0.649903        -1.003144
 C         1.568058         0.184804         0.005009
 C         0.059460         0.254287        -0.456889
 C         2.320977         1.521876         0.161480
 O         3.508708         1.311220         0.879516
 C         3.458848        -0.116413         1.093233
 C         2.143017        -0.729326         1.144839
 H         5.026335        -2.361544        -0.345814
 H         3.634990        -3.350794         0.326940
 H         3.659091        -2.654328        -1.368021
 H        -0.406850         1.214515        -0.232667
 H         0.001643         0.006165        -1.514085
 H        -0.509317        -0.549507         0.101570
 H         2.648878         1.924422        -0.772683
 H         1.551722         2.127374         0.661664
 H         4.327999        -0.577442         1.629891
 H         1.558961        -1.248338         1.894531
