19
Iteration:  2207charge 0 multiplicity 1
 C         3.647846        -2.527371        -0.209382
 C         3.206023        -1.162091         0.015846
 O         2.608128        -0.384248        -1.065273
 C         1.578217         0.149941        -0.082917
 C         0.140432         0.015627        -0.403447
 C         2.153856         1.605062         0.260174
 O         3.520788         1.247155         0.836425
 C         3.592060        -0.102327         1.115081
 C         2.060885        -0.747805         1.052779
 H         4.271547        -2.571952        -1.106826
 H         4.199601        -2.895299         0.592153
 H         2.853940        -3.197292        -0.406501
 H        -0.211323         0.956106        -0.902464
 H        -0.090591        -0.879152        -1.045651
 H        -0.334370        -0.082930         0.577975
 H         2.430289         2.271300        -0.577412
 H         1.565215         2.052011         1.047917
 H         4.344144        -0.241780         1.915316
 H         1.414967        -1.384281         1.708864
