19
Iteration:  3761charge 0 multiplicity 1
 C         3.696112        -2.657369         0.050556
 C         3.084941        -1.245753         0.205423
 O         2.426978        -0.667826        -0.973337
 C         1.565111         0.232450        -0.028098
 C         0.119184         0.186290        -0.491128
 C         2.285411         1.546023        -0.028177
 O         3.626222         1.280240         0.546788
 C         3.526675        -0.003138         1.147431
 C         2.143858        -0.565511         1.183423
 H         3.154952        -3.263686        -0.671644
 H         4.706653        -2.632628        -0.545936
 H         3.748588        -3.205843         1.047674
 H        -0.571872         0.768693         0.142225
 H        -0.027294         0.569653        -1.500064
 H        -0.113095        -0.884744        -0.517691
 H         2.524830         2.037338        -0.938950
 H         2.001966         2.467453         0.557528
 H         4.312720        -0.093017         1.947695
 H         1.407640        -0.881797         1.949635
