19
Iteration:  4636
 C         3.572262        -2.580222         0.022372
 C         3.118503        -1.152251         0.091427
 O         2.580625        -0.510783        -1.106405
 C         1.634072         0.220011        -0.127797
 C         0.246921         0.039993        -0.455396
 C         2.237509         1.560283         0.169674
 O         3.580490         1.234554         0.723125
 C         3.478978        -0.085213         1.070644
 C         2.060728        -0.603017         1.139581
 H         2.701896        -3.146847         0.174893
 H         4.054892        -2.685287        -0.974449
 H         4.336566        -3.015873         0.698490
 H        -0.249784        -0.591735         0.340771
 H        -0.304229         0.907771        -0.543685
 H         0.253239        -0.406453        -1.491360
 H         2.262205         2.310350        -0.687625
 H         1.655641         2.043134         1.023669
 H         4.199574        -0.359678         1.813481
 H         1.383894        -0.828516         1.965709
