19
Iteration:  2617charge 0 multiplicity 1
 C         3.568773        -2.572826        -0.098785
 C         3.286383        -1.147626         0.011830
 O         2.543805        -0.547111        -1.047099
 C         1.592972         0.235067        -0.101372
 C         0.130776         0.058921        -0.460874
 C         2.151895         1.539513         0.247305
 O         3.509400         1.322318         0.850174
 C         3.579469        -0.104217         1.106923
 C         2.196753        -0.672288         1.024463
 H         2.760116        -3.006760        -0.585636
 H         4.422806        -2.689565        -0.748177
 H         3.785125        -2.954928         0.895825
 H         0.242626        -0.373724        -1.486753
 H        -0.511928        -0.678690         0.070150
 H        -0.313256         1.037853        -0.575679
 H         2.357845         2.260876        -0.616205
 H         1.406962         2.086546         0.896726
 H         4.249370        -0.263866         1.945944
 H         1.723804        -1.256152         1.722644
