19
Iteration:  1426charge 0 multiplicity 1
 C         3.940353        -2.424265         0.091134
 C         3.027570        -1.169039         0.162622
 O         2.139825        -0.816287        -0.891397
 C         1.527366         0.190238         0.130096
 C         0.060624         0.051858         0.268021
 C         2.141917         1.508772        -0.224891
 O         3.655868         1.224067         0.002619
 C         3.714109        -0.029910         0.777425
 C         2.287927        -0.384901         1.223803
 H         5.025716        -2.213371         0.028339
 H         3.688030        -2.876335         1.078336
 H         3.642267        -3.183910        -0.704895
 H        -0.237455        -0.967546         0.429255
 H        -0.430396         0.633835         1.042682
 H        -0.383965         0.394803        -0.684301
 H         1.984953         1.927706        -1.209782
 H         1.845604         2.148152         0.603188
 H         4.711603        -0.130254         1.269662
 H         2.066739        -0.579611         2.322362
