19
Iteration:  1620charge 0 multiplicity 1
 C         3.817830        -2.533146        -0.127886
 C         3.151415        -1.169406         0.104778
 O         2.161738        -0.724807        -0.920629
 C         1.564931         0.101857         0.123174
 C         0.045033         0.023343         0.038220
 C         2.214855         1.493823        -0.147202
 O         3.583707         1.352915         0.349807
 C         3.671325         0.045596         0.906165
 C         2.329151        -0.495179         1.270917
 H         4.263887        -3.064637         0.734967
 H         3.157811        -3.218364        -0.614776
 H         4.634653        -2.349466        -0.857122
 H        -0.175072        -0.013349        -1.050348
 H        -0.499493        -0.829956         0.502211
 H        -0.414106         0.977816         0.413967
 H         2.369281         1.876532        -1.154949
 H         1.658002         2.242543         0.484905
 H         4.581847         0.032663         1.427446
 H         2.005740        -0.710431         2.340236
