19
Iteration:     6
 C         3.794039        -2.521397         0.047152
 C         3.097028        -1.179363         0.169851
 O         2.148053        -0.814477        -0.807882
 C         1.516917         0.177266         0.125417
 C         0.056448         0.063641         0.146709
 C         2.191883         1.469091        -0.202804
 O         3.584726         1.254391         0.065602
 C         3.703556         0.078290         0.742056
 C         2.393090        -0.354700         1.265455
 H         4.520210        -2.667919         0.890303
 H         3.158419        -3.441915         0.184662
 H         4.452098        -2.556144        -0.842801
 H        -0.406952         0.697794         0.918277
 H        -0.155559         0.201723        -0.945547
 H        -0.097565        -0.987558         0.481935
 H         2.149497         1.797288        -1.260601
 H         1.878032         2.358444         0.411001
 H         4.649865         0.044860         1.310313
 H         2.131025        -0.684908         2.303093
