19
Iteration:  2979charge 0 multiplicity 1
 C         3.516878        -2.670423        -0.027974
 C         3.268377        -1.231495         0.163007
 O         2.569055        -0.523495        -0.883346
 C         1.631739         0.118821        -0.019064
 C         0.118880         0.155588        -0.607541
 C         2.226472         1.494388         0.069324
 O         3.533766         1.303430         0.553711
 C         3.556437        -0.004027         1.178663
 C         2.177643        -0.528474         1.163536
 H         2.507678        -3.040845        -0.494906
 H         4.332940        -2.882919        -0.737373
 H         3.535475        -3.275481         0.932084
 H         0.127101        -0.196653        -1.654531
 H        -0.356855        -0.631252        -0.067075
 H        -0.494783         1.045017        -0.412310
 H         2.171313         1.979511        -0.982327
 H         1.658354         2.056039         0.864312
 H         4.351279        -0.112041         1.902394
 H         1.629633        -0.829010         2.005569
