19
Iteration:  1578
 C         4.011236        -2.484334        -0.127298
 C         3.160783        -1.181142         0.102862
 O         2.109141        -0.862470        -0.845707
 C         1.467155         0.050081         0.067364
 C        -0.023861         0.253786         0.055550
 C         2.167464         1.433765        -0.092955
 O         3.598010         1.344841         0.217289
 C         3.702591         0.054567         0.903372
 C         2.362473        -0.529572         1.287640
 H         3.522471        -3.280140         0.436921
 H         4.040538        -2.799979        -1.147494
 H         4.954252        -2.263882         0.438939
 H        -0.234234         1.170072        -0.476656
 H        -0.559112        -0.455084        -0.564236
 H        -0.407906         0.385825         1.056511
 H         2.021522         1.615467        -1.159827
 H         1.725212         2.334804         0.420658
 H         4.538982        -0.211381         1.486718
 H         1.953546        -0.791243         2.311176
