19
Iteration:  3166
 C         3.614800        -2.650325         0.046243
 C         3.232649        -1.201395         0.150738
 O         2.708303        -0.552179        -1.026930
 C         1.647419         0.217528        -0.208222
 C         0.128830         0.116748        -0.345525
 C         2.208620         1.602400         0.025030
 O         3.566996         1.252354         0.593126
 C         3.357795        -0.070269         1.180764
 C         2.071589        -0.593676         1.075656
 H         2.834252        -3.254009        -0.412675
 H         4.529316        -2.766331        -0.389147
 H         3.674720        -3.137531         1.024118
 H        -0.278634         0.391861        -1.370514
 H        -0.237906        -0.859213        -0.127303
 H        -0.382734         0.845858         0.370967
 H         2.531099         2.236396        -0.852032
 H         1.481073         2.020559         0.795805
 H         3.981240        -0.162013         2.022834
 H         1.388893        -0.969489         1.890889
