19
Iteration:  3345
 C         3.595908        -2.689356        -0.077873
 C         3.145517        -1.237066         0.264082
 O         2.503915        -0.587101        -0.940651
 C         1.623515         0.185899        -0.098391
 C         0.175317         0.117434        -0.595277
 C         2.220897         1.542476         0.041133
 O         3.582851         1.321012         0.603159
 C         3.615397        -0.011668         1.166740
 C         2.096744        -0.537625         1.224011
 H         2.845278        -3.169064        -0.672480
 H         4.514155        -2.644521        -0.688126
 H         3.844573        -3.307782         0.777156
 H         0.061834         0.318577        -1.659768
 H        -0.292176        -0.912940        -0.426250
 H        -0.529472         0.790806        -0.147824
 H         2.238066         2.105452        -0.859772
 H         1.676358         2.216833         0.756893
 H         4.016245        -0.194760         2.153310
 H         1.617774        -0.785302         2.194088
