19
Iteration:  3511
 C         3.632672        -2.527339         0.128361
 C         3.040447        -1.167086         0.167732
 O         2.474621        -0.581955        -1.015438
 C         1.529022         0.222567        -0.106939
 C         0.092481         0.049008        -0.580845
 C         2.321040         1.596107         0.169342
 O         3.700358         1.207977         0.562232
 C         3.569958        -0.098258         1.060348
 C         2.117466        -0.578488         1.146401
 H         2.924646        -3.262297        -0.019204
 H         4.505085        -2.628601        -0.569084
 H         4.182651        -2.910372         1.016052
 H        -0.115697         0.730418        -1.497721
 H        -0.114825        -0.973607        -0.816756
 H        -0.654756         0.383847         0.218647
 H         2.377805         2.286482        -0.686755
 H         2.001270         2.174006         1.023650
 H         4.142132        -0.341572         1.989455
 H         1.372296        -0.834825         1.891056
