19
Iteration:   846
 C         4.019976        -2.347472        -0.066934
 C         2.996748        -1.194454         0.209241
 O         1.989394        -0.909279        -0.817806
 C         1.534069         0.194585         0.157930
 C         0.048268         0.070734         0.332663
 C         2.227494         1.487407        -0.310481
 O         3.723809         1.163846        -0.077247
 C         3.644962         0.068838         0.846021
 C         2.271048        -0.368909         1.355993
 H         4.398427        -2.942046         0.811175
 H         3.485078        -3.138892        -0.645006
 H         4.901079        -1.907647        -0.592558
 H        -0.422848         0.740206        -0.397881
 H        -0.182964        -0.992705         0.044916
 H        -0.293346         0.250143         1.330803
 H         2.170258         1.652990        -1.366078
 H         1.973307         2.383787         0.293124
 H         4.697732        -0.024328         1.266084
 H         1.986956        -0.437648         2.383276
