19
Iteration:  4588
 C         3.815965        -2.564877         0.027700
 C         3.146857        -1.222785         0.077107
 O         2.464724        -0.570566        -1.053462
 C         1.572230         0.197015        -0.034373
 C         0.147858         0.305241        -0.536134
 C         2.252586         1.510374         0.114528
 O         3.546385         1.256565         0.640265
 C         3.466179        -0.152224         1.150995
 C         2.083019        -0.679397         1.158833
 H         3.016758        -3.370092        -0.196599
 H         4.764380        -2.522289        -0.451106
 H         4.098229        -2.914593         0.994808
 H        -0.194984        -0.661376        -0.817297
 H        -0.618509         0.604747         0.253780
 H         0.091980         1.040466        -1.312358
 H         2.427181         1.886421        -0.901978
 H         1.691938         2.287752         0.668084
 H         4.221940        -0.487935         1.901353
 H         1.558818        -0.962327         2.082337
