19
Iteration:   116
 C         3.665400        -2.466795         0.149917
 C         3.156574        -1.093649         0.001986
 O         2.132047        -0.754685        -0.923024
 C         1.538775         0.115602         0.083720
 C         0.099761        -0.110392         0.133155
 C         2.236297         1.500846        -0.048065
 O         3.633367         1.295891         0.088926
 C         3.715366         0.112868         0.736545
 C         2.434844        -0.429201         1.278728
 H         4.081214        -2.450577         1.144637
 H         2.836798        -3.206019         0.119352
 H         4.478583        -2.756702        -0.622404
 H        -0.535502         0.741008        -0.341998
 H        -0.355247        -0.952010        -0.424110
 H        -0.361610        -0.180252         1.148728
 H         2.008926         1.959276        -1.034874
 H         1.759484         2.051736         0.810908
 H         4.523997         0.010766         1.383696
 H         2.203616        -0.829511         2.221918
