19
Iteration:  3994charge 0 multiplicity 1
 C         3.733990        -2.515186         0.009628
 C         3.035356        -1.186975         0.302853
 O         2.411796        -0.752323        -0.891821
 C         1.582590         0.117718        -0.071456
 C         0.167041         0.280523        -0.561241
 C         2.357762         1.461464        -0.098730
 O         3.672730         1.260088         0.548296
 C         3.508179        -0.008854         1.134645
 C         2.020347        -0.527284         1.259095
 H         3.023854        -3.224817        -0.429565
 H         4.332924        -2.465184        -0.957293
 H         4.300591        -2.813785         0.872013
 H        -0.384599        -0.680778        -0.385743
 H        -0.483883         0.942282        -0.001227
 H         0.209614         0.549037        -1.601721
 H         2.470088         1.697883        -1.190871
 H         1.755379         2.214519         0.416255
 H         4.140709        -0.283765         2.044324
 H         1.474180        -0.923024         2.156628
