19
Iteration:  3851
 C         3.645948        -2.488309         0.132705
 C         2.970422        -1.228518         0.205456
 O         2.476948        -0.683031        -0.983730
 C         1.543759         0.174025        -0.057140
 C         0.154864         0.158478        -0.477850
 C         2.404477         1.537584        -0.090510
 O         3.674270         1.191774         0.491005
 C         3.493176        -0.020589         1.215564
 C         2.106899        -0.519643         1.217022
 H         3.078038        -3.408916         0.046281
 H         3.797324        -2.439206        -1.083434
 H         4.599076        -2.505179         0.621353
 H        -0.284771        -0.736154        -0.142745
 H        -0.380947         1.024643         0.075573
 H         0.142257         0.206466        -1.597121
 H         2.398807         1.743551        -1.194848
 H         1.733150         2.245290         0.473791
 H         4.170615        -0.064132         2.030475
 H         1.548125        -0.969704         2.030639
