19
Iteration:   254
 C         4.075257        -2.276903        -0.012360
 C         3.115263        -1.154249         0.145433
 O         2.069411        -0.924236        -0.906161
 C         1.456639         0.066460         0.095838
 C        -0.013550         0.312239         0.337993
 C         2.261973         1.306103        -0.194766
 O         3.659835         1.193893        -0.018119
 C         3.614511         0.052523         0.844281
 C         2.239458        -0.472453         1.258828
 H         4.820274        -2.207735         0.814821
 H         3.593100        -3.305125         0.063048
 H         4.615668        -2.251780        -0.899605
 H        -0.362970         0.853745        -0.475749
 H        -0.618755        -0.591587         0.355544
 H         0.036676         0.755187         1.295113
 H         1.959105         1.584045        -1.199856
 H         1.999724         2.057965         0.581599
 H         4.530191        -0.049221         1.330212
 H         1.802785        -0.583504         2.312757
