19
Iteration:  2003
 C         3.775239        -2.545766        -0.111496
 C         3.163452        -1.149201         0.126983
 O         2.422514        -0.533953        -0.974899
 C         1.590681         0.243954        -0.039329
 C         0.037990        -0.000007        -0.235304
 C         2.190501         1.614530         0.153277
 O         3.643583         1.190121         0.479051
 C         3.518541        -0.079922         1.048930
 C         2.140541        -0.580043         1.139826
 H         3.305701        -2.710396        -1.092533
 H         4.890239        -2.521668        -0.288635
 H         3.641777        -3.422875         0.571244
 H         0.037106        -0.870021        -0.925100
 H        -0.447597        -0.323894         0.700311
 H        -0.428544         0.764647        -0.819994
 H         2.297228         2.142829        -0.791879
 H         1.829160         2.305202         0.887938
 H         4.239809        -0.410334         1.726197
 H         1.627323        -0.892326         2.085084
