19
Iteration:  2861
 C         3.828850        -2.565781        -0.032988
 C         3.185003        -1.260401         0.226380
 O         2.446484        -0.720223        -1.013518
 C         1.511132         0.120180        -0.133946
 C         0.046629         0.368571        -0.487780
 C         2.275644         1.503744         0.006389
 O         3.547260         1.288200         0.701632
 C         3.544200        -0.028038         1.114078
 C         2.138272        -0.629467         1.166497
 H         3.118550        -3.267223        -0.513795
 H         4.718288        -2.467016        -0.574274
 H         3.971572        -3.182639         0.882825
 H        -0.297524        -0.451278        -1.153678
 H        -0.458285         0.255332         0.439585
 H        -0.160748         1.399274        -0.931707
 H         2.418233         1.923215        -0.955025
 H         1.804231         2.214195         0.699515
 H         4.189399        -0.128044         1.962240
 H         1.493005        -0.897503         1.949102
