19
Iteration:   388charge 0 multiplicity 1
 C         3.798725        -2.496711         0.084523
 C         3.178966        -1.145392         0.064399
 O         2.042463        -0.836654        -0.909295
 C         1.509018         0.139711         0.126501
 C        -0.021251        -0.021702         0.200991
 C         2.150075         1.510138        -0.115979
 O         3.705819         1.339439         0.094215
 C         3.780487         0.063771         0.772144
 C         2.417256        -0.422640         1.233835
 H         4.656384        -2.401694         0.710281
 H         3.045583        -3.328043         0.251218
 H         4.163571        -2.745195        -0.997749
 H        -0.298281        -0.054894        -0.879286
 H        -0.328549        -0.938798         0.696152
 H        -0.599269         0.777856         0.687681
 H         2.119685         1.904389        -1.159029
 H         1.881071         2.339346         0.637112
 H         4.623815        -0.076943         1.526390
 H         2.050269        -0.453359         2.268612
