19
Iteration:  2281charge 0 multiplicity 1
 C         3.936614        -2.413594        -0.393468
 C         3.181984        -1.183839         0.094222
 O         2.399022        -0.550490        -0.935016
 C         1.548925         0.133554        -0.005424
 C         0.107420         0.275385        -0.569956
 C         2.237546         1.512379         0.207531
 O         3.481747         1.252333         0.852935
 C         3.510281        -0.177290         1.163016
 C         2.115107        -0.781826         1.209579
 H         3.503115        -2.686326        -1.407095
 H         5.025638        -2.453778        -0.458611
 H         3.583719        -3.248148         0.228521
 H         0.280044         0.121856        -1.646387
 H        -0.730340        -0.384883        -0.302929
 H        -0.088584         1.327589        -0.478431
 H         2.288048         1.935766        -0.787224
 H         1.749963         2.197472         0.955809
 H         4.234588        -0.541481         1.888888
 H         1.455146        -1.278268         1.989203
