19
Iteration:   544charge 0 multiplicity 1
 C         3.368458        -2.619442         0.173984
 C         3.197155        -1.186457         0.121614
 O         2.229846        -0.757501        -0.863085
 C         1.666564         0.082316         0.161709
 C         0.173398        -0.163882         0.066012
 C         2.060003         1.579957         0.062113
 O         3.459394         1.414924        -0.022079
 C         3.844375         0.176010         0.609128
 C         2.607126        -0.396871         1.215945
 H         4.297007        -2.978941         0.800440
 H         2.558835        -3.166981         0.635736
 H         3.748875        -2.931780        -0.874237
 H        -0.199498        -0.182119        -0.970373
 H        -0.048887        -1.131648         0.580757
 H        -0.277182         0.706974         0.604610
 H         1.719522         2.120924        -0.878900
 H         1.884894         2.211868         0.945772
 H         4.764362         0.339390         1.228286
 H         2.566595        -0.566168         2.256376
