19
Iteration:  1509
 C         3.642003        -2.559332         0.034808
 C         3.185189        -1.180242         0.181113
 O         2.227149        -0.735538        -0.842378
 C         1.596194         0.121440         0.139426
 C        -0.006941        -0.150022         0.069419
 C         2.181089         1.628251        -0.081008
 O         3.598801         1.311140         0.040001
 C         3.767731         0.144055         0.798445
 C         2.427454        -0.406416         1.246965
 H         3.201361        -2.835358        -0.954648
 H         4.656389        -2.810931         0.022980
 H         3.092988        -3.120645         0.764583
 H        -0.391183         0.304562         1.005852
 H        -0.485981         0.279383        -0.824694
 H        -0.188596        -1.240810         0.218681
 H         1.958968         1.868410        -1.125603
 H         1.703276         2.440875         0.533243
 H         4.700234         0.065866         1.425777
 H         2.078919        -0.733734         2.202431
