19
Iteration:   629charge 0 multiplicity 1
 C         4.082433        -2.377935        -0.069284
 C         3.189614        -1.283386         0.135553
 O         2.061443        -0.989261        -0.785233
 C         1.455209         0.094225         0.150659
 C        -0.007164         0.378990         0.356428
 C         2.193525         1.426706        -0.313222
 O         3.547519         1.253639         0.087641
 C         3.652950         0.040912         0.761842
 C         2.353473        -0.437570         1.207778
 H         4.493219        -2.506284         0.923714
 H         3.587836        -3.302079        -0.339150
 H         4.937411        -2.137948        -0.765705
 H        -0.437639         0.818183        -0.552504
 H        -0.663895        -0.552623         0.248245
 H        -0.136226         0.845887         1.341988
 H         1.938781         1.528325        -1.385505
 H         1.704342         2.267400         0.327853
 H         4.504527        -0.058799         1.461097
 H         2.325183        -0.654277         2.244878
