19
Iteration:   935
 C         3.570240        -2.547853         0.169544
 C         3.157874        -1.136945         0.039443
 O         2.216289        -0.713433        -0.904705
 C         1.511909         0.167171         0.083611
 C         0.057942        -0.238164         0.237150
 C         2.198019         1.574105        -0.079299
 O         3.663117         1.336680        -0.060983
 C         3.761580         0.074174         0.748392
 C         2.433814        -0.324503         1.249595
 H         4.559604        -2.577842         0.816239
 H         2.774749        -3.086335         0.650662
 H         3.818906        -2.991201        -0.856503
 H        -0.421495        -0.653972        -0.632108
 H        -0.085504        -1.073207         0.946206
 H        -0.460237         0.648361         0.638761
 H         1.900557         2.080559        -0.995976
 H         1.794250         2.124942         0.879158
 H         4.547867        -0.058264         1.379779
 H         2.256743        -0.597199         2.328428
