19
Iteration:  1043charge 0 multiplicity 1
 C         3.966043        -2.451983         0.180981
 C         3.050474        -1.213137         0.088585
 O         2.044938        -0.889642        -0.845452
 C         1.474413         0.161528         0.146960
 C        -0.075699         0.138885         0.323011
 C         2.158909         1.498201        -0.322770
 O         3.661429         1.300644         0.096290
 C         3.756980         0.036452         0.651044
 C         2.434229        -0.452844         1.193557
 H         4.220934        -2.465339         1.301777
 H         3.528568        -3.385775        -0.085501
 H         4.889437        -2.422806        -0.426862
 H        -0.540181         0.933409        -0.274221
 H        -0.248596        -0.908811         0.000332
 H        -0.351503         0.290211         1.380622
 H         2.121630         1.616396        -1.380427
 H         1.933388         2.451591         0.114641
 H         4.731679         0.046175         1.016347
 H         2.265318        -0.747074         2.300085
