19
Iteration:  3232
 C         3.821960        -2.509912         0.000505
 C         3.011926        -1.245797         0.231364
 O         2.404919        -0.656749        -0.892454
 C         1.615619         0.179204        -0.026598
 C         0.141226         0.237378        -0.653747
 C         2.300246         1.538922         0.019573
 O         3.597928         1.231968         0.604573
 C         3.492923        -0.087721         1.129350
 C         2.075484        -0.609944         1.200211
 H         3.170003        -3.294659        -0.484560
 H         4.561803        -2.187180        -0.676006
 H         4.306223        -2.924002         0.879983
 H         0.300816         0.672383        -1.672700
 H        -0.157864        -0.827766        -0.698090
 H        -0.622769         0.923926        -0.143269
 H         2.401263         2.056975        -0.978542
 H         1.689002         2.232948         0.728321
 H         4.263145        -0.370568         1.817299
 H         1.578853        -0.919102         2.150512
