19
Iteration:  3917charge 0 multiplicity 1
 C         3.542879        -2.627221         0.246066
 C         3.145286        -1.123831         0.207857
 O         2.473127        -0.673147        -0.981665
 C         1.693749         0.202769        -0.100570
 C         0.204988         0.194770        -0.444467
 C         2.249656         1.525162        -0.036294
 O         3.616840         1.277504         0.416909
 C         3.529895        -0.024194         1.111467
 C         2.088499        -0.589030         1.146344
 H         2.798376        -3.126966        -0.402359
 H         4.631350        -2.868763        -0.246603
 H         3.560242        -2.955891         1.286671
 H        -0.009454        -0.580436        -1.144852
 H        -0.349125         0.086842         0.513337
 H        -0.319157         1.061214        -0.835788
 H         2.314523         2.038922        -1.019893
 H         1.787237         1.987988         0.819413
 H         4.279237        -0.207051         1.849578
 H         1.467168        -1.206246         1.760732
