19
Iteration:  3906charge 0 multiplicity 1
 C         3.509217        -2.601873         0.203147
 C         3.099791        -1.233459         0.231124
 O         2.488109        -0.690455        -0.967092
 C         1.605299         0.136752        -0.109279
 C         0.165893         0.156646        -0.486557
 C         2.316636         1.543196         0.029779
 O         3.647888         1.349219         0.438355
 C         3.568002         0.020512         1.101715
 C         2.126956        -0.582293         1.144304
 H         2.706365        -3.150408        -0.320261
 H         4.500709        -2.709951        -0.463321
 H         3.610735        -3.144898         1.125479
 H        -0.010883        -0.685573        -1.110742
 H        -0.490839        -0.055120         0.384750
 H         0.011729         1.098818        -1.017403
 H         2.268059         2.076156        -0.950741
 H         1.703383         2.221493         0.643244
 H         4.290358        -0.069136         1.872175
 H         1.592719        -0.798031         2.037967
