19
Iteration:  4927charge 0 multiplicity 1
 C         3.955917        -2.316031        -0.317598
 C         3.074720        -1.226349         0.179860
 O         2.362164        -0.589977        -1.015211
 C         1.595452         0.130674        -0.034824
 C         0.172336         0.276455        -0.493537
 C         2.318732         1.496186         0.093324
 O         3.511249         1.163074         0.849020
 C         3.500958        -0.168943         1.196805
 C         2.009310        -0.707140         1.137182
 H         3.489529        -2.765308        -1.242297
 H         4.907610        -2.022623        -0.678371
 H         4.049010        -3.051051         0.492411
 H        -0.566553        -0.247780         0.119042
 H        -0.257133         1.415239        -0.451201
 H         0.211334        -0.172240        -1.481124
 H         2.593388         2.013281        -0.831343
 H         1.741603         2.195055         0.778888
 H         4.013573        -0.451489         2.152455
 H         1.360274        -1.310570         1.794514
