19
Iteration:  4627charge 0 multiplicity 1
 C         3.580022        -2.574409         0.064195
 C         3.093298        -1.177066         0.077676
 O         2.591122        -0.565307        -1.206551
 C         1.680238         0.214698        -0.086963
 C         0.172232         0.100472        -0.473193
 C         2.250456         1.571011         0.202955
 O         3.588988         1.265063         0.708447
 C         3.464807        -0.115171         1.153700
 C         2.095160        -0.597807         1.098001
 H         2.885266        -3.316328         0.051741
 H         4.053502        -2.782656        -0.935423
 H         4.350069        -2.518027         0.926049
 H        -0.123625        -0.744128         0.230221
 H        -0.427408         1.004121        -0.326472
 H        -0.008604        -0.253321        -1.560522
 H         2.077008         2.273850        -0.631654
 H         1.615075         1.925333         1.098087
 H         4.298031        -0.404445         1.834173
 H         1.425085        -0.840225         1.956524
