19
Iteration:   688charge 0 multiplicity 1
 C         3.793589        -2.596885        -0.046348
 C         3.196297        -1.180885         0.148991
 O         2.113679        -0.839822        -0.820390
 C         1.506773         0.177599         0.187533
 C        -0.006840        -0.056006         0.204502
 C         2.221215         1.534360        -0.205397
 O         3.569811         1.327793         0.029351
 C         3.743317         0.117457         0.708889
 C         2.436735        -0.326201         1.342795
 H         4.163424        -2.953314         0.961934
 H         2.907844        -3.218218        -0.252178
 H         4.570556        -2.738195        -0.795410
 H        -0.581109         0.677909        -0.315650
 H        -0.169183        -1.090805         0.139223
 H        -0.316806         0.191136         1.240748
 H         1.957039         1.850080        -1.249532
 H         1.974387         2.334909         0.478044
 H         4.758642         0.185450         1.046061
 H         2.150764        -0.484772         2.409780
