19
Iteration:  3346
 C         3.595689        -2.690039        -0.082108
 C         3.143931        -1.237557         0.262726
 O         2.516684        -0.580364        -0.930922
 C         1.613192         0.187744        -0.103079
 C         0.178389         0.120380        -0.593336
 C         2.217138         1.540531         0.040728
 O         3.575479         1.313120         0.596167
 C         3.614031        -0.019879         1.162583
 C         2.100762        -0.533251         1.227055
 H         2.847782        -3.163080        -0.649456
 H         4.552442        -2.608595        -0.685787
 H         3.825327        -3.333534         0.795317
 H         0.062294         0.307042        -1.668400
 H        -0.232668        -0.882502        -0.382644
 H        -0.509686         0.799998        -0.150773
 H         2.193582         2.094053        -0.887574
 H         1.706091         2.236254         0.789756
 H         3.996610        -0.201608         2.139415
 H         1.586282        -0.786562         2.201382
