19
Iteration:  4777
 C         3.838203        -2.511686        -0.146149
 C         3.158339        -1.235994         0.127959
 O         2.457747        -0.602134        -1.004212
 C         1.578566         0.178728        -0.146027
 C         0.061977         0.214187        -0.492139
 C         2.229049         1.605584         0.181376
 O         3.580141         1.236469         0.748041
 C         3.466600        -0.156887         1.147760
 C         2.116971        -0.661450         1.093333
 H         3.115929        -3.188478        -0.571649
 H         4.736561        -2.279618        -0.793111
 H         4.199112        -3.019773         0.802177
 H        -0.041839         0.739552        -1.512666
 H        -0.335090        -0.759115        -0.527575
 H        -0.409029         0.812653         0.389045
 H         2.328798         2.133130        -0.779374
 H         1.738435         2.271018         0.913892
 H         4.077026        -0.424821         2.066918
 H         1.639684        -1.030047         2.035191
