19
Iteration:  3750
 C         3.645653        -2.686908        -0.007206
 C         3.041774        -1.256145         0.269361
 O         2.470718        -0.588076        -0.903647
 C         1.631643         0.239989        -0.124396
 C         0.137773         0.081364        -0.444176
 C         2.357176         1.628695        -0.039162
 O         3.595922         1.282465         0.523219
 C         3.534747        -0.014891         1.133112
 C         2.090727        -0.548908         1.156589
 H         3.027117        -3.229075        -0.709976
 H         4.730949        -2.434761        -0.332144
 H         3.833629        -3.330426         0.919640
 H        -0.381648         0.872691         0.128586
 H         0.052358         0.262753        -1.505217
 H        -0.329900        -0.860142        -0.167372
 H         2.433853         1.955750        -1.039730
 H         1.648341         2.173860         0.633354
 H         4.217934        -0.264065         1.973864
 H         1.482248        -0.973028         1.973057
