19
Iteration:  2890charge 0 multiplicity 1
 C         3.886676        -2.458444         0.123390
 C         3.125217        -1.238664         0.188597
 O         2.425198        -0.635562        -1.070906
 C         1.556460         0.122310        -0.114600
 C         0.167757         0.415512        -0.362627
 C         2.315117         1.513147        -0.066009
 O         3.512694         1.219814         0.639330
 C         3.440008        -0.125556         1.104146
 C         2.061858        -0.761192         1.103052
 H         3.136227        -3.296857        -0.093234
 H         4.620426        -2.423489        -0.775964
 H         4.480547        -2.566327         1.058577
 H        -0.199467        -0.175025        -1.176153
 H        -0.428105         0.010789         0.508502
 H        -0.048858         1.442690        -0.373548
 H         2.479267         1.816165        -1.168664
 H         1.872303         2.281778         0.560790
 H         4.154976        -0.198123         1.920499
 H         1.337554        -1.254776         1.845884
