19
Iteration:  1416charge 0 multiplicity 1
 C         3.957007        -2.404344         0.093322
 C         3.034284        -1.229020         0.180858
 O         2.141487        -0.850558        -0.849448
 C         1.562964         0.173221         0.084677
 C         0.006453         0.112347         0.223165
 C         2.248740         1.521416        -0.185381
 O         3.580678         1.199746        -0.027344
 C         3.612562         0.060278         0.750008
 C         2.386827        -0.406718         1.300443
 H         4.982053        -2.109948        -0.007464
 H         3.899548        -3.225858         0.849368
 H         3.705710        -3.006234        -0.828486
 H        -0.176473        -0.955782         0.083864
 H        -0.300247         0.362820         1.262272
 H        -0.651024         0.663214        -0.460767
 H         2.094077         1.878578        -1.217487
 H         1.856480         2.356155         0.408749
 H         4.460076        -0.282197         1.342571
 H         1.911539        -0.603270         2.326981
