19
Iteration:   464charge 0 multiplicity 1
 C         3.970652        -2.308779        -0.105072
 C         3.033137        -1.238336         0.258318
 O         2.019151        -0.943777        -0.770584
 C         1.519623         0.152814         0.117561
 C        -0.015843         0.143631         0.232313
 C         2.225003         1.447088        -0.349521
 O         3.685522         1.257645         0.094561
 C         3.689666         0.037158         0.827690
 C         2.374710        -0.422731         1.286701
 H         4.478181        -2.654902         0.760889
 H         3.272620        -3.090160        -0.598883
 H         4.750996        -2.087724        -0.921186
 H        -0.625718         0.724575        -0.485024
 H        -0.453916        -0.868869         0.305012
 H        -0.137660         0.556165         1.245129
 H         2.387530         1.533308        -1.415733
 H         1.913895         2.425385         0.059644
 H         4.587549        -0.172809         1.402798
 H         2.027576        -0.532204         2.354256
