19
Iteration:   300
 C         3.705951        -2.604817         0.062262
 C         3.126653        -1.123641         0.132102
 O         2.124404        -0.798050        -0.824546
 C         1.556690         0.075897         0.225125
 C         0.056020        -0.025804         0.172525
 C         2.134965         1.483195        -0.193634
 O         3.596992         1.396303         0.046312
 C         3.754326         0.109002         0.637651
 C         2.511367        -0.334511         1.344197
 H         4.162359        -2.968503         0.943240
 H         2.914090        -3.304044        -0.231539
 H         4.500680        -2.746830        -0.705590
 H        -0.323823         0.801620        -0.431427
 H        -0.198543        -0.843720        -0.499199
 H        -0.323481        -0.189886         1.142043
 H         1.977007         1.584086        -1.281813
 H         1.680906         2.284368         0.407567
 H         4.674621         0.051372         1.316595
 H         2.287610        -0.590970         2.332031
