19
Iteration:   712charge 0 multiplicity 1
 C         3.536459        -2.495065         0.040305
 C         3.072551        -1.179264         0.202495
 O         2.315545        -0.680580        -0.896208
 C         1.570636         0.203514         0.164207
 C         0.139549        -0.224863         0.278567
 C         2.101831         1.526679        -0.139152
 O         3.629451         1.258760        -0.095061
 C         3.784518         0.133004         0.781714
 C         2.420670        -0.399481         1.222962
 H         4.321257        -2.767851         0.710548
 H         2.653330        -3.242808         0.076728
 H         3.925095        -2.460931        -0.983141
 H        -0.498711         0.182255        -0.472653
 H         0.149229        -1.232453         0.540033
 H        -0.267725         0.276918         1.144111
 H         1.743567         1.890986        -1.080354
 H         1.838944         2.175391         0.647161
 H         4.518207         0.336678         1.482996
 H         2.037589        -0.585746         2.271952
