19
Iteration:  4095
 C         3.582428        -2.599739         0.117544
 C         3.085410        -1.272266         0.196317
 O         2.503787        -0.575084        -1.035415
 C         1.635867         0.228262        -0.130427
 C         0.203703         0.178914        -0.461329
 C         2.278546         1.583547         0.030993
 O         3.541320         1.253013         0.567407
 C         3.549516        -0.046350         1.126998
 C         2.131436        -0.653352         1.174470
 H         2.796531        -3.325675        -0.177444
 H         4.420829        -2.572633        -0.501992
 H         3.899002        -2.983577         1.145373
 H        -0.363987         1.009405         0.036940
 H         0.059224         0.380871        -1.483657
 H        -0.159357        -0.849141        -0.305102
 H         2.451903         2.019584        -0.984484
 H         1.664107         2.346069         0.502954
 H         4.393721        -0.091348         1.770412
 H         1.568061        -1.210580         1.945187
