19
Iteration:  3381
 C         3.680291        -2.500656         0.067533
 C         3.055393        -1.133791         0.213185
 O         2.475382        -0.508958        -1.029232
 C         1.560145         0.192199        -0.080588
 C         0.148638         0.103506        -0.537502
 C         2.297918         1.545825         0.103788
 O         3.687726         1.184541         0.495618
 C         3.491303        -0.113587         1.185999
 C         2.052504        -0.651715         1.152211
 H         3.162947        -3.125373        -0.657467
 H         4.748594        -2.383040        -0.377838
 H         3.760780        -2.935083         1.120742
 H         0.127571        -0.143517        -1.618361
 H        -0.156321        -0.785641        -0.088910
 H        -0.381347         0.964821        -0.125571
 H         2.333089         2.078039        -0.900804
 H         1.974902         2.121967         1.028836
 H         4.058793        -0.152542         2.124122
 H         1.381363        -1.150696         1.888307
