19
Iteration:  4717charge 0 multiplicity 1
 C         3.939524        -2.520408        -0.025034
 C         3.097508        -1.264444         0.123340
 O         2.414994        -0.610163        -1.049424
 C         1.572231         0.192873        -0.110594
 C         0.026623         0.296716        -0.421964
 C         2.358759         1.507227         0.161653
 O         3.597476         1.281459         0.689723
 C         3.429712        -0.162685         1.110702
 C         2.042968        -0.637369         1.084692
 H         3.486159        -3.221142        -0.753982
 H         4.849395        -2.370719        -0.569863
 H         4.093040        -2.961278         0.945767
 H        -0.565795         1.193600        -0.329140
 H         0.003589         0.060280        -1.582929
 H        -0.583588        -0.426280         0.088932
 H         2.332400         2.124908        -0.746819
 H         1.904284         2.054455         1.075111
 H         4.217302        -0.392730         1.807612
 H         1.506303        -1.148170         1.864479
