19
Iteration:  2622
 C         3.623806        -2.566487        -0.115400
 C         3.271290        -1.150129         0.004338
 O         2.499195        -0.578166        -1.076432
 C         1.614449         0.233244        -0.090586
 C         0.108978         0.067876        -0.491559
 C         2.192861         1.581130         0.256130
 O         3.497018         1.338973         0.863246
 C         3.580936        -0.124532         1.094869
 C         2.211181        -0.655078         1.075907
 H         2.674739        -3.081555        -0.549865
 H         4.585137        -2.814738        -0.642087
 H         3.607605        -2.970826         0.924182
 H         0.227232        -0.193141        -1.553747
 H        -0.528695        -0.722225        -0.065629
 H        -0.330240         1.093689        -0.524111
 H         2.246892         2.180038        -0.617524
 H         1.345102         1.912238         0.872002
 H         4.241987        -0.240975         1.969368
 H         1.808700        -1.361944         1.914193
