19
Iteration:   995charge 0 multiplicity 1
 C         3.855666        -2.501532        -0.042640
 C         3.239959        -1.157877         0.272346
 O         2.137816        -0.981626        -0.770428
 C         1.501100         0.086882         0.151444
 C        -0.034284         0.212581         0.148851
 C         2.162501         1.395511        -0.242706
 O         3.570738         1.359879        -0.024739
 C         3.724666         0.121884         0.816699
 C         2.435381        -0.409905         1.334075
 H         4.836370        -2.762519         0.183711
 H         3.133159        -3.346844         0.226964
 H         3.753078        -2.425398        -1.119292
 H        -0.341078         0.908046        -0.667174
 H        -0.438004        -0.806905         0.130732
 H        -0.328274         0.718400         1.075732
 H         2.024461         1.580271        -1.331274
 H         1.782433         2.234693         0.274931
 H         4.612592         0.240596         1.542308
 H         2.055598        -0.775262         2.254800
