19
Iteration:  2735charge 0 multiplicity 1
 C         3.862995        -2.530698        -0.064144
 C         3.138136        -1.158843         0.054012
 O         2.343828        -0.617207        -1.015015
 C         1.583131         0.169139        -0.010168
 C         0.100246         0.242164        -0.540296
 C         2.235935         1.513663         0.063359
 O         3.588471         1.233929         0.832140
 C         3.515978        -0.073639         1.083292
 C         2.103824        -0.687595         1.175023
 H         3.275797        -3.449709        -0.229677
 H         4.563284        -2.455726        -0.998152
 H         4.595435        -2.641140         0.808303
 H        -0.528973         1.016432        -0.099640
 H         0.216861         0.556062        -1.562896
 H        -0.438200        -0.696017        -0.443640
 H         2.544258         1.929425        -0.934874
 H         1.590568         2.228539         0.493756
 H         4.153635        -0.248720         1.930363
 H         1.674090        -1.202076         1.955841
