19
Iteration:  2002charge 0 multiplicity 1
 C         3.784026        -2.546718        -0.110692
 C         3.159277        -1.157425         0.133826
 O         2.417571        -0.535219        -0.980419
 C         1.586929         0.244821        -0.033095
 C         0.030024         0.004773        -0.240423
 C         2.188645         1.614360         0.157159
 O         3.645966         1.183151         0.478008
 C         3.523531        -0.072631         1.055006
 C         2.148880        -0.573130         1.128884
 H         3.323511        -2.714542        -1.119325
 H         4.897819        -2.476202        -0.244256
 H         3.643264        -3.438385         0.562914
 H         0.005857        -0.856680        -0.919012
 H        -0.451357        -0.330616         0.686703
 H        -0.450776         0.771322        -0.807454
 H         2.298792         2.130684        -0.800368
 H         1.838814         2.284638         0.898562
 H         4.244417        -0.429110         1.731216
 H         1.630431        -0.874410         2.075150
