19
Iteration:  1857
 C         3.616265        -2.596995        -0.104544
 C         3.208043        -1.106544         0.085712
 O         2.374604        -0.544939        -1.048576
 C         1.587381         0.207190         0.024887
 C         0.099097        -0.063503        -0.200682
 C         2.105086         1.572871         0.203526
 O         3.582935         1.284610         0.371328
 C         3.648269         0.009947         1.000958
 C         2.333694        -0.622016         1.223318
 H         3.937068        -3.080712         0.871414
 H         2.723664        -3.161905        -0.392545
 H         4.487098        -2.776011        -0.745751
 H        -0.271386        -0.871317         0.394821
 H        -0.385839         0.810369         0.154247
 H        -0.005813        -0.180738        -1.275836
 H         2.143328         2.243100        -0.680910
 H         1.579237         2.035249         1.062664
 H         4.541547        -0.182519         1.621269
 H         1.810950        -0.877315         2.131838
