19
Iteration:  4738
 C         3.937672        -2.377094         0.076722
 C         3.088310        -1.200404         0.049834
 O         2.422040        -0.514082        -1.084711
 C         1.538399         0.159395        -0.102606
 C         0.081164         0.332123        -0.403165
 C         2.196458         1.576989         0.147881
 O         3.607016         1.057280         0.659899
 C         3.488664        -0.203124         1.100263
 C         2.102856        -0.762847         1.051883
 H         3.635106        -3.294605        -0.423134
 H         4.963319        -2.243886        -0.273467
 H         3.844443        -2.635179         1.139032
 H        -0.273745         1.326833        -0.591375
 H        -0.285758        -0.084958        -1.381896
 H        -0.495840         0.098246         0.471055
 H         2.514157         1.965201        -0.816659
 H         1.652065         2.253754         0.914414
 H         4.157439        -0.550336         1.891898
 H         1.671420        -1.236817         1.926491
