19
Iteration:  3004
 C         3.538203        -2.566796         0.149932
 C         3.076877        -1.233669         0.093331
 O         2.475458        -0.609540        -1.070971
 C         1.626593         0.186937        -0.109194
 C         0.220081         0.065628        -0.514395
 C         2.301422         1.600349         0.117598
 O         3.577900         1.325220         0.650576
 C         3.529171        -0.044449         1.122031
 C         2.156103        -0.592375         1.098782
 H         2.789020        -3.296687        -0.432127
 H         4.527249        -2.454455        -0.323723
 H         3.566794        -2.960972         1.211513
 H         0.067840         0.207720        -1.584701
 H        -0.093126        -0.939941        -0.289432
 H        -0.416317         0.761712         0.105074
 H         2.444986         2.091206        -0.828538
 H         1.764069         2.209188         0.877487
 H         4.478829        -0.319621         1.658674
 H         1.689633        -1.134011         1.947873
