19
Iteration:  4224charge 0 multiplicity 1
 C         3.611923        -2.575321         0.126290
 C         3.095386        -1.208298         0.138688
 O         2.433201        -0.644639        -1.054958
 C         1.622485         0.144916        -0.138599
 C         0.187939         0.184613        -0.454984
 C         2.278408         1.529855         0.019154
 O         3.579014         1.281359         0.625928
 C         3.548725        -0.076879         1.071836
 C         2.162069        -0.502599         1.196510
 H         2.926723        -3.434628         0.197546
 H         4.229264        -2.890074        -0.753989
 H         4.271632        -2.472096         1.046890
 H        -0.527313         0.754911         0.272058
 H         0.241099         0.506528        -1.463913
 H        -0.235407        -0.855948        -0.517476
 H         2.451070         2.039702        -0.943734
 H         1.722098         2.033623         0.777836
 H         4.202452        -0.425472         1.855768
 H         1.493512        -0.800215         1.998520
