19
Iteration:  3588
 C         3.717337        -2.509947        -0.054149
 C         3.084995        -1.173269         0.188215
 O         2.339262        -0.689269        -1.005241
 C         1.584907         0.210356        -0.069259
 C         0.060340         0.110500        -0.491946
 C         2.407279         1.578010        -0.017106
 O         3.663385         1.223205         0.672889
 C         3.507229        -0.032590         1.262543
 C         2.126189        -0.543808         1.119891
 H         3.178991        -3.224968        -0.629571
 H         4.750977        -2.548262        -0.553369
 H         3.930301        -3.077653         0.879974
 H        -0.013603        -0.152695        -1.586786
 H        -0.538185        -0.661297         0.038763
 H        -0.479825         1.113572        -0.505264
 H         2.746738         1.782180        -1.060452
 H         1.905802         2.369836         0.558845
 H         4.096597        -0.309273         2.118970
 H         1.571580        -0.907165         1.920539
