19
Iteration:  3115
 C         3.777007        -2.470172         0.066466
 C         3.052747        -1.223793         0.157596
 O         2.294661        -0.702173        -0.996501
 C         1.573020         0.171049        -0.056068
 C         0.192068         0.200401        -0.679871
 C         2.364658         1.523155         0.087316
 O         3.591082         1.270583         0.723091
 C         3.539750        -0.074341         1.094427
 C         2.114172        -0.594599         1.162630
 H         3.011230        -3.367535        -0.020776
 H         4.569037        -2.554344        -0.774438
 H         4.328444        -2.726697         0.986797
 H        -0.028913         1.134754        -1.120603
 H         0.046573        -0.722662        -1.327095
 H        -0.555173         0.111376         0.072787
 H         2.546011         1.954390        -0.880594
 H         1.710880         2.287648         0.649630
 H         4.347320        -0.153757         1.802285
 H         1.538375        -0.844516         2.117458
