19
Iteration:  3569
 C         3.634347        -2.675129        -0.017966
 C         3.100903        -1.229955         0.180372
 O         2.480412        -0.628295        -0.969116
 C         1.578675         0.193059        -0.125861
 C         0.152172         0.208821        -0.517183
 C         2.290010         1.507388         0.006178
 O         3.569916         1.369690         0.663839
 C         3.546004        -0.018257         1.119180
 C         2.169729        -0.630763         1.239451
 H         3.089266        -3.212064        -0.888658
 H         4.629071        -2.604760        -0.483826
 H         3.599861        -3.134418         0.952188
 H         0.009334        -0.123448        -1.526544
 H        -0.360685        -0.604485         0.104244
 H        -0.344590         1.191285        -0.383991
 H         2.395065         2.038710        -1.002969
 H         1.735442         2.089219         0.733957
 H         4.308275        -0.207016         1.842368
 H         1.527342        -0.956613         2.048778
