19
Iteration:   164
 C         3.462950        -2.706032         0.085406
 C         3.185326        -1.174924         0.088676
 O         2.315416        -0.632803        -0.904814
 C         1.603423         0.120093         0.095012
 C         0.184926        -0.189038         0.183399
 C         2.090948         1.570421        -0.061310
 O         3.564530         1.443000         0.041781
 C         3.762202         0.134324         0.743038
 C         2.445123        -0.413584         1.220959
 H         4.049516        -2.906935         1.019301
 H         2.498860        -3.207488         0.159777
 H         3.980854        -3.057284        -0.819866
 H        -0.283618        -0.371098        -0.782647
 H        -0.034219        -1.146963         0.656056
 H        -0.414605         0.551802         0.742196
 H         1.731286         1.971251        -1.023843
 H         1.848021         2.214738         0.807074
 H         4.573357         0.029528         1.542938
 H         2.208830        -0.527552         2.335458
