19
Iteration:  1679
 C         3.646702        -2.635995         0.002900
 C         3.194133        -1.208331         0.039956
 O         2.328258        -0.586595        -0.909898
 C         1.540409         0.182500         0.114541
 C         0.077444        -0.052672        -0.103724
 C         2.120954         1.596653         0.153948
 O         3.578504         1.338754         0.204248
 C         3.743801         0.028086         0.870679
 C         2.346235        -0.550764         1.176382
 H         4.681548        -2.524261        -0.230589
 H         3.389285        -3.147155         0.977886
 H         3.080892        -3.087727        -0.815266
 H        -0.063862        -0.731632        -0.934864
 H        -0.233834        -0.511323         0.820088
 H        -0.511396         0.811382        -0.290694
 H         1.960460         2.156681        -0.810274
 H         1.449685         2.102971         0.962919
 H         4.681948         0.089970         1.521939
 H         2.075042        -0.904731         2.134612
