19
Iteration:  4491
 C         3.727573        -2.568191         0.133672
 C         3.122060        -1.171718         0.154242
 O         2.433770        -0.552898        -1.027889
 C         1.623544         0.173084        -0.075675
 C         0.137035         0.194843        -0.483829
 C         2.308642         1.523685         0.053118
 O         3.597592         1.224578         0.588224
 C         3.495024        -0.111332         1.144219
 C         2.062707        -0.611507         1.081925
 H         2.890701        -3.334016        -0.140856
 H         4.654384        -2.599986        -0.520318
 H         4.079876        -2.883918         1.083073
 H         0.041244         1.011518        -1.152135
 H        -0.349165        -0.583796        -1.150894
 H        -0.458988         0.365859         0.380453
 H         2.428198         1.999979        -0.955259
 H         1.778920         2.301730         0.688156
 H         4.185812        -0.319861         2.004427
 H         1.581883        -1.252686         1.820441
