19
Iteration:  3208
 C         3.738717        -2.582602        -0.007557
 C         3.071820        -1.158511         0.102931
 O         2.328805        -0.628765        -0.935930
 C         1.537460         0.227838         0.053566
 C         0.182336         0.064390        -0.719763
 C         2.303877         1.570036         0.034609
 O         3.598110         1.300027         0.703395
 C         3.550546        -0.072070         1.127706
 C         2.168779        -0.580638         1.234911
 H         2.992966        -3.155217        -0.590099
 H         4.776684        -2.708095        -0.427779
 H         3.670497        -3.082888         1.021501
 H         0.409577         0.198669        -1.863818
 H        -0.167513        -0.903986        -0.426034
 H        -0.531119         0.961120        -0.430407
 H         2.354140         2.010617        -1.061265
 H         2.034117         2.429665         0.695232
 H         4.245292        -0.466390         1.828653
 H         1.789205        -1.043677         2.183279
