19
Iteration:  2511
 C         4.035273        -2.413185        -0.198480
 C         3.150424        -1.240197         0.068601
 O         2.445473        -0.647488        -0.999512
 C         1.532591         0.147449         0.021067
 C         0.084154         0.457167        -0.495125
 C         2.178511         1.484567         0.087458
 O         3.500187         1.246428         0.803511
 C         3.419022        -0.152443         1.127721
 C         2.109442        -0.863946         1.129128
 H         3.429355        -3.318207        -0.719319
 H         4.952322        -2.135319        -0.739083
 H         4.372730        -2.872543         0.783810
 H        -0.670589         0.105987         0.262063
 H         0.014471         1.593634        -0.485663
 H        -0.212840         0.144897        -1.461783
 H         2.250092         1.861066        -0.908960
 H         1.693757         2.162467         0.837715
 H         4.234594        -0.219037         1.829269
 H         1.738158        -1.350844         1.976463
