19
Iteration:  1807charge 0 multiplicity 1
 C         3.924032        -2.567735        -0.169423
 C         3.122951        -1.175799         0.093952
 O         2.233064        -0.671478        -0.889738
 C         1.501176         0.124282         0.071023
 C        -0.013196         0.147237        -0.231647
 C         2.241206         1.562407         0.118206
 O         3.522270         1.279343         0.433775
 C         3.672492        -0.014160         0.913884
 C         2.322580        -0.573762         1.222926
 H         3.404877        -3.491641         0.105974
 H         3.931829        -2.738843        -1.242415
 H         4.947027        -2.562136         0.295139
 H        -0.574397        -0.422768         0.540707
 H        -0.265227         1.260738        -0.110056
 H        -0.188814        -0.194955        -1.280923
 H         2.048334         1.954476        -0.882217
 H         1.872669         2.198937         0.902536
 H         4.480260        -0.184981         1.690936
 H         2.046670        -0.978157         2.162065
