19
Iteration:   147charge 0 multiplicity 1
 C         3.514779        -2.737276         0.203526
 C         3.149669        -1.207546         0.082871
 O         2.353472        -0.558230        -1.020815
 C         1.560947         0.237170         0.028710
 C         0.121960        -0.249833         0.229028
 C         2.123431         1.654362         0.011112
 O         3.512709         1.275737         0.042007
 C         3.792539         0.160032         0.737420
 C         2.466213        -0.397585         1.177254
 H         4.037081        -2.938667         1.154663
 H         2.583598        -3.362944         0.310888
 H         4.197164        -3.074395        -0.590345
 H        -0.593145         0.080921        -0.562828
 H         0.148742        -1.370521         0.357528
 H        -0.325881         0.299456         1.106647
 H         2.008204         2.284286        -0.883253
 H         1.641205         2.186912         0.851948
 H         4.695644         0.236324         1.217323
 H         2.048044        -0.726939         2.144345
