19
Iteration:  1612charge 0 multiplicity 1
 C         3.823085        -2.520025        -0.161392
 C         3.102659        -1.145061         0.084536
 O         2.208348        -0.802931        -0.841234
 C         1.552350         0.109338         0.076217
 C         0.060702         0.122551         0.015579
 C         2.153226         1.486523        -0.114267
 O         3.536893         1.384927         0.333042
 C         3.714754         0.026598         0.885861
 C         2.365621        -0.552817         1.307827
 H         4.034063        -2.945068         0.798812
 H         3.371553        -3.234567        -0.869953
 H         4.808814        -2.371741        -0.664350
 H        -0.143527         0.300238        -1.021881
 H        -0.400959        -0.786602         0.378588
 H        -0.312119         0.962230         0.544252
 H         2.258757         1.557391        -1.215624
 H         1.597626         2.365052         0.311908
 H         4.568301        -0.200644         1.521486
 H         2.067153        -0.688569         2.328604
