19
Iteration:  3195
 C         3.584903        -2.554355         0.005960
 C         3.099243        -1.193164         0.166695
 O         2.415048        -0.580963        -0.988534
 C         1.623704         0.169786        -0.094488
 C         0.189101         0.076271        -0.585233
 C         2.284022         1.548068         0.060980
 O         3.613961         1.323567         0.702352
 C         3.534829        -0.035079         1.120966
 C         2.163512        -0.620682         1.214633
 H         3.044032        -3.175045        -0.707977
 H         4.719794        -2.457797        -0.336165
 H         3.603182        -3.101658         1.016718
 H         0.323842        -0.029859        -1.717724
 H        -0.331748        -0.872348        -0.369992
 H        -0.571782         0.850564        -0.328772
 H         2.578017         1.962925        -0.948496
 H         1.502373         2.058529         0.612842
 H         4.400248        -0.188249         1.796846
 H         1.569745        -1.015007         2.011493
