19
Iteration:  4133charge 0 multiplicity 1
 C         3.798391        -2.618995        -0.108952
 C         3.073695        -1.195261         0.297121
 O         2.299042        -0.680715        -0.930321
 C         1.617188         0.171387        -0.042747
 C         0.147882         0.159875        -0.564074
 C         2.400057         1.586876         0.007787
 O         3.655532         1.213048         0.554183
 C         3.445208        -0.061730         1.208176
 C         2.034915        -0.432043         1.255669
 H         3.336165        -2.894440        -1.043270
 H         4.869518        -2.447814        -0.569020
 H         3.857132        -3.360448         0.629250
 H        -0.396929         1.097867        -0.587328
 H         0.165695        -0.388340        -1.599126
 H        -0.411385        -0.547344         0.073695
 H         2.566299         1.737588        -1.062015
 H         1.896264         2.392274         0.577833
 H         4.267654        -0.235796         1.952630
 H         1.415747        -0.596540         2.136145
