19
Iteration:  3804
 C         3.830538        -2.580125         0.201865
 C         3.030083        -1.269481         0.198815
 O         2.369855        -0.785787        -1.094133
 C         1.607312         0.226053        -0.074067
 C         0.089804         0.381798        -0.458541
 C         2.308821         1.542467        -0.007892
 O         3.598874         1.274740         0.554043
 C         3.548847        -0.056778         1.112182
 C         2.104906        -0.614659         1.149430
 H         3.284270        -3.521812         0.090892
 H         4.550855        -2.687821        -0.705640
 H         4.393690        -2.486817         1.187824
 H        -0.625768         0.111955         0.348791
 H        -0.111146         1.405545        -0.719177
 H         0.024264        -0.276694        -1.327915
 H         2.339169         1.842938        -1.035804
 H         1.651902         2.241815         0.604610
 H         4.329439        -0.377385         1.875164
 H         1.469366        -1.034546         1.972578
