19
Iteration:  4863charge 0 multiplicity 1
 C         3.683982        -2.501372        -0.141152
 C         3.117224        -1.166276         0.051841
 O         2.592320        -0.499925        -1.113783
 C         1.610370         0.162614        -0.120586
 C         0.191175         0.117375        -0.466083
 C         2.263118         1.571541         0.348203
 O         3.514758         1.231836         0.741083
 C         3.450769        -0.091890         1.122547
 C         2.094311        -0.743910         1.053121
 H         2.907984        -3.231890        -0.219245
 H         4.410822        -2.705690        -0.881215
 H         4.251085        -2.620694         0.796618
 H        -0.096473        -0.744708        -1.038881
 H        -0.302441         0.224621         0.456377
 H        -0.191763         0.856800        -1.128830
 H         2.122430         2.406163        -0.329405
 H         1.675618         1.935257         1.249849
 H         4.074562        -0.236348         2.061330
 H         1.561312        -1.172159         1.931484
