19
Iteration:  2384charge 0 multiplicity 1
 C         3.672571        -2.591906        -0.269763
 C         3.178740        -1.146818         0.108049
 O         2.609301        -0.491799        -0.963089
 C         1.609631         0.128903        -0.029595
 C         0.172101         0.168915        -0.526806
 C         2.164853         1.500398         0.346144
 O         3.472875         1.293674         0.699976
 C         3.533705        -0.066528         1.129592
 C         2.138241        -0.718085         1.084806
 H         2.868935        -3.243166        -0.092241
 H         3.886570        -2.619453        -1.362639
 H         4.492276        -3.028443         0.291059
 H        -0.052000         1.190659        -0.917922
 H         0.139643        -0.497496        -1.425244
 H        -0.702172        -0.225502         0.114365
 H         2.283473         2.339196        -0.416477
 H         1.498196         1.888989         1.112245
 H         4.129072        -0.314479         1.967386
 H         1.562654        -1.017230         1.953162
