19
Iteration:  2251
 C         3.814400        -2.460938        -0.255591
 C         3.055206        -1.175539         0.055769
 O         2.472788        -0.423670        -1.001135
 C         1.596827         0.217729        -0.016538
 C         0.163336         0.048002        -0.572366
 C         2.191423         1.590504         0.421369
 O         3.548312         1.232266         0.730785
 C         3.530447        -0.206365         1.115305
 C         2.132414        -0.717466         1.109649
 H         3.678607        -2.593040        -1.322501
 H         4.810771        -2.533472         0.078393
 H         3.270552        -3.282984         0.167313
 H         0.366359         0.110752        -1.693224
 H        -0.422436        -0.888742        -0.327528
 H        -0.408448         0.949509        -0.342337
 H         2.137687         2.273959        -0.479953
 H         1.783231         1.960526         1.334919
 H         4.220579        -0.672641         1.894967
 H         1.469900        -1.208275         1.847756
