19
Iteration:  1169charge 0 multiplicity 1
 C         3.948945        -2.530774         0.153259
 C         3.103545        -1.249160         0.194714
 O         2.108483        -0.882290        -0.926217
 C         1.532896         0.162497         0.092337
 C         0.007060         0.117814         0.280483
 C         2.185192         1.521177        -0.221377
 O         3.572776         1.269980        -0.008854
 C         3.685704         0.099166         0.743595
 C         2.396004        -0.356469         1.204435
 H         4.958568        -2.329256         0.456349
 H         3.640677        -3.369324         0.894141
 H         4.032895        -2.999480        -0.832813
 H        -0.534425        -0.021559        -0.639235
 H        -0.367312        -0.715805         0.891896
 H        -0.188101         0.965734         0.902580
 H         1.996329         1.866282        -1.281673
 H         1.923504         2.331417         0.519678
 H         4.348789         0.047691         1.536999
 H         2.018246        -0.559520         2.232534
