19
Iteration:  3598
 C         3.744402        -2.481793        -0.013343
 C         3.095539        -1.159942         0.219706
 O         2.385599        -0.709598        -1.015846
 C         1.504900         0.261315        -0.079068
 C         0.121354         0.137120        -0.445295
 C         2.438524         1.567439        -0.047189
 O         3.659635         1.202899         0.677054
 C         3.466880        -0.122482         1.144870
 C         2.026198        -0.572330         1.165597
 H         3.173555        -3.111652        -0.595098
 H         4.558885        -2.018769        -0.663131
 H         4.157372        -2.872267         0.946257
 H         0.240022        -0.211107        -1.521348
 H        -0.356248        -0.682487         0.073983
 H        -0.496868         1.065950        -0.332946
 H         2.620852         1.885382        -1.086734
 H         2.102594         2.502888         0.465505
 H         4.101358        -0.442185         1.963183
 H         1.450003        -0.968181         1.949698
