19
Iteration:  4570
 C         3.794851        -2.451163        -0.090317
 C         3.002478        -1.254279         0.218266
 O         2.447686        -0.637508        -0.938326
 C         1.595819         0.141320        -0.010017
 C         0.167652         0.310318        -0.545451
 C         2.302855         1.481687        -0.035746
 O         3.546254         1.183966         0.672940
 C         3.522328        -0.070357         1.144836
 C         2.081462        -0.646596         1.186989
 H         3.300556        -3.219062        -0.677977
 H         4.771198        -1.975048        -0.455657
 H         4.025405        -3.032457         0.865739
 H        -0.153004        -0.351812        -1.410556
 H        -0.544958         0.220288         0.254790
 H         0.100680         1.314517        -1.072667
 H         2.506487         1.879442        -1.070688
 H         1.821952         2.236285         0.653620
 H         4.199774        -0.157528         1.959350
 H         1.507698        -1.199998         1.902418
