19
Iteration:  2813
 C         3.626839        -2.507993         0.000145
 C         3.091287        -1.179915         0.148482
 O         2.518958        -0.403532        -0.978090
 C         1.544956         0.223354        -0.063007
 C         0.145868        -0.101258        -0.497833
 C         2.315900         1.619504         0.141043
 O         3.659619         1.177180         0.563758
 C         3.489629        -0.160057         1.139119
 C         2.067883        -0.536147         1.141138
 H         2.848043        -3.042731        -0.612955
 H         4.551596        -2.360632        -0.706213
 H         3.745030        -3.164267         0.875840
 H        -0.119148        -1.057591        -0.079917
 H        -0.640206         0.661000        -0.231873
 H         0.183864        -0.196994        -1.544839
 H         2.440288         2.153588        -0.869628
 H         1.809048         2.205810         0.871848
 H         4.336469        -0.208263         1.851582
 H         1.655471        -1.053162         2.084258
