19
Iteration:  1296
 C         3.730173        -2.553361         0.329439
 C         3.120093        -1.227844         0.148845
 O         2.311770        -0.708202        -1.016669
 C         1.513146         0.205407         0.091171
 C         0.071883        -0.069967         0.361049
 C         2.124833         1.554610        -0.178622
 O         3.560049         1.265458        -0.191667
 C         3.690053         0.121606         0.735742
 C         2.451418        -0.446658         1.271589
 H         3.665152        -2.945453         1.315328
 H         3.039258        -3.188994        -0.226866
 H         4.707541        -2.831107        -0.084838
 H        -0.555304         0.805318         0.132047
 H        -0.194307        -0.978383        -0.171325
 H        -0.227979        -0.231530         1.441924
 H         1.893358         1.947110        -1.193789
 H         1.884662         2.377532         0.605255
 H         4.579282         0.237684         1.336550
 H         1.892396        -0.517192         2.148774
