19
Iteration:  1525charge 0 multiplicity 1
 C         3.752404        -2.577221         0.028089
 C         3.126658        -1.115217         0.141594
 O         2.217413        -0.676068        -0.890460
 C         1.487641         0.208401         0.125887
 C         0.070896        -0.095474         0.165582
 C         2.208262         1.504603        -0.119271
 O         3.617792         1.262665         0.055817
 C         3.680323         0.061895         0.788177
 C         2.350997        -0.417458         1.273874
 H         3.347406        -3.134793        -0.809366
 H         4.863651        -2.342291        -0.215575
 H         3.648142        -3.192754         0.978637
 H        -0.627023         0.627819         0.557935
 H        -0.209547        -0.136642        -0.895069
 H        -0.100562        -1.091145         0.559036
 H         2.078340         1.958844        -1.114562
 H         1.994011         2.203894         0.697122
 H         4.465588         0.021951         1.487367
 H         2.096223        -0.535682         2.359323
