19
Iteration:  2988charge 0 multiplicity 1
 C         3.502311        -2.640682         0.023083
 C         3.177193        -1.133825         0.196245
 O         2.555389        -0.588825        -0.962713
 C         1.642589         0.182012        -0.066237
 C         0.134156         0.110497        -0.562357
 C         2.203140         1.581733         0.073440
 O         3.566864         1.302755         0.601285
 C         3.608042        -0.030520         1.092332
 C         2.181757        -0.634121         1.177108
 H         2.682457        -3.035971        -0.510731
 H         4.348813        -3.079744        -0.542160
 H         3.558072        -3.142724         0.984250
 H         0.210567        -0.067043        -1.660646
 H        -0.418302        -0.813653        -0.176024
 H        -0.375467         1.015497        -0.264144
 H         2.337186         2.136053        -0.933328
 H         1.587660         2.138650         0.832796
 H         4.157157        -0.093665         1.991674
 H         1.628443        -1.097462         1.975991
