19
Iteration:  1534
 C         3.818313        -2.505696         0.025365
 C         3.036285        -1.215531         0.117845
 O         2.200215        -0.674063        -0.906319
 C         1.615506         0.201335         0.141295
 C         0.009569        -0.044602         0.118179
 C         2.192349         1.532716        -0.129199
 O         3.638304         1.239709         0.057869
 C         3.681605         0.056486         0.817512
 C         2.351132        -0.431017         1.306425
 H         3.363780        -3.178735        -0.727051
 H         4.820232        -2.293113        -0.342511
 H         3.903593        -3.012609         1.022705
 H        -0.583285         0.726121         0.566598
 H        -0.349482        -0.410604        -0.832949
 H        -0.035927        -0.821301         0.865905
 H         1.957667         1.979018        -1.083529
 H         1.669857         2.156224         0.630544
 H         4.535003        -0.091720         1.449705
 H         1.893559        -0.629438         2.352167
