19
Iteration:  4237
 C         3.587187        -2.579901         0.112193
 C         3.124858        -1.170503         0.176412
 O         2.395630        -0.613313        -0.977798
 C         1.629569         0.230892        -0.068250
 C         0.187717         0.062645        -0.536050
 C         2.310146         1.546287         0.023169
 O         3.630592         1.265671         0.583941
 C         3.553211        -0.030554         1.132939
 C         2.124709        -0.597183         1.108517
 H         2.614139        -3.120869         0.293169
 H         3.954525        -2.677346        -0.857789
 H         4.366663        -3.026760         0.799154
 H        -0.500061         0.463005         0.308277
 H        -0.101630         0.687320        -1.373651
 H        -0.014992        -1.016540        -0.727716
 H         2.469407         1.969021        -0.995952
 H         1.732992         2.340190         0.542987
 H         4.253963        -0.143441         1.990731
 H         1.653115        -0.854116         2.050717
