19
Iteration:   562charge 0 multiplicity 1
 C         3.562448        -2.731647         0.060065
 C         3.115925        -1.138422         0.144704
 O         2.223400        -0.752152        -0.819788
 C         1.561677         0.244208         0.181998
 C         0.035669        -0.188323         0.141707
 C         2.089873         1.594723        -0.062077
 O         3.594293         1.418685        -0.022468
 C         3.845000         0.159589         0.667767
 C         2.563214        -0.375779         1.304787
 H         4.346169        -3.050022         0.650604
 H         2.664209        -3.161958         0.540249
 H         3.735821        -3.041880        -0.949236
 H        -0.042731        -0.455513        -0.915994
 H        -0.077799        -1.225208         0.481161
 H        -0.795691         0.460091         0.393826
 H         1.899841         1.995120        -1.031750
 H         1.768133         2.268911         0.794207
 H         4.823536         0.079945         0.972222
 H         2.361309        -0.697409         2.373117
