19
Iteration:   479
 C         3.875873        -2.474419        -0.007171
 C         3.016830        -1.207506         0.128774
 O         2.058087        -0.860371        -0.838032
 C         1.559954         0.193542         0.110456
 C         0.110886         0.056225         0.315219
 C         2.308759         1.484302        -0.294587
 O         3.600762         1.258847         0.074244
 C         3.677714         0.058462         0.758829
 C         2.324128        -0.352434         1.318951
 H         4.463249        -2.608898         1.009118
 H         3.515995        -3.413742        -0.427422
 H         4.665794        -2.033902        -0.764908
 H        -0.412585         0.608358        -0.485598
 H        -0.068036        -1.035156         0.128708
 H        -0.429107         0.276517         1.265984
 H         1.932074         1.582808        -1.370781
 H         1.821090         2.331519         0.327931
 H         4.580448        -0.036026         1.355580
 H         1.939625        -0.554050         2.316904
