19
Iteration:  1321charge 0 multiplicity 1
 C         3.706518        -2.449187         0.243550
 C         3.153640        -1.186343         0.132271
 O         2.139000        -0.795768        -0.855331
 C         1.542764         0.148598         0.044357
 C         0.054594        -0.107780         0.290803
 C         2.151114         1.528027        -0.221302
 O         3.646768         1.281724        -0.040277
 C         3.742532         0.072837         0.701791
 C         2.445630        -0.326247         1.205074
 H         3.977407        -2.751957         1.250691
 H         2.950212        -3.258533        -0.160384
 H         4.575065        -2.639230        -0.402697
 H        -0.611417         0.642283        -0.245156
 H        -0.158245        -1.199111         0.005147
 H        -0.291901         0.059335         1.339684
 H         1.994556         1.924728        -1.271897
 H         1.759512         2.265926         0.532267
 H         4.638654         0.127431         1.309175
 H         2.081820        -0.509406         2.303784
