19
Iteration:   925
 C         3.551501        -2.586349         0.183530
 C         3.219379        -1.113534         0.082258
 O         2.256969        -0.745250        -0.961297
 C         1.610252         0.094259         0.091568
 C        -0.018880        -0.142407         0.235787
 C         2.097284         1.538389        -0.050254
 O         3.594608         1.345368        -0.024589
 C         3.812190         0.087205         0.701276
 C         2.505254        -0.295522         1.227758
 H         4.325460        -2.858118         1.060364
 H         2.675361        -3.135099         0.414907
 H         3.836295        -3.127834        -0.801496
 H        -0.538801        -0.363998        -0.685838
 H        -0.003226        -0.937769         0.989218
 H        -0.661532         0.651329         0.708802
 H         1.838470         2.114235        -0.948186
 H         1.804639         2.189454         0.868145
 H         4.598878         0.134924         1.325873
 H         2.231593        -0.651646         2.263606
