19
Iteration:   651charge 0 multiplicity 1
 C         4.035844        -2.404179         0.023465
 C         3.063816        -1.225352         0.111075
 O         1.976378        -0.974206        -0.806943
 C         1.505730         0.060292         0.194788
 C        -0.008178         0.331477         0.236262
 C         2.203923         1.351892        -0.263839
 O         3.557243         1.370128         0.082997
 C         3.764448         0.157290         0.656433
 C         2.462762        -0.581241         1.369425
 H         4.385927        -2.784209         0.985611
 H         3.539835        -3.180036        -0.533064
 H         4.903863        -2.156720        -0.656817
 H        -0.252342         1.141050        -0.494799
 H        -0.850430        -0.375607        -0.134416
 H        -0.093853         0.578295         1.307913
 H         2.025440         1.436911        -1.369323
 H         1.595301         2.209058         0.297772
 H         4.818693         0.072710         1.059201
 H         2.086456        -0.973285         2.295108
