19
Iteration:  2046
 C         3.544061        -2.652790        -0.192792
 C         3.265512        -1.136274         0.078250
 O         2.450706        -0.531785        -1.027272
 C         1.580187         0.177656        -0.022068
 C         0.097631        -0.041267        -0.353983
 C         2.199842         1.581944         0.095365
 O         3.520713         1.380517         0.740680
 C         3.658367        -0.037182         1.030712
 C         2.265559        -0.603531         1.178575
 H         2.548367        -3.002039         0.159574
 H         3.854629        -2.906682        -1.232721
 H         4.319995        -3.088708         0.538518
 H        -0.190730        -1.080925        -0.109208
 H        -0.593174         0.580933         0.236476
 H        -0.051024         0.093466        -1.404010
 H         2.430128         2.128290        -0.829057
 H         1.568890         2.131838         0.772294
 H         4.426194        -0.142117         1.736992
 H         1.867485        -1.147729         2.065550
