19
Iteration:  3206charge 0 multiplicity 1
 C         3.713053        -2.586557        -0.000281
 C         3.062631        -1.159271         0.099033
 O         2.336898        -0.616187        -0.942345
 C         1.562829         0.209610         0.044319
 C         0.175743         0.063304        -0.711050
 C         2.309287         1.567007         0.024465
 O         3.609378         1.303249         0.709625
 C         3.536418        -0.057769         1.136213
 C         2.173803        -0.584858         1.239610
 H         3.022522        -3.122953        -0.660759
 H         4.809264        -2.720767        -0.459875
 H         3.652759        -3.051672         1.058353
 H         0.388780         0.174426        -1.834683
 H        -0.170237        -0.910175        -0.384432
 H        -0.497486         0.922743        -0.446935
 H         2.312691         2.038432        -1.010394
 H         1.875706         2.381364         0.652629
 H         4.294586        -0.480633         1.810004
 H         1.813525        -1.039431         2.137910
