19
Iteration:  1718
 C         3.704278        -2.489905        -0.059235
 C         3.186525        -1.144132         0.106077
 O         2.235694        -0.727229        -0.876309
 C         1.579226         0.102352         0.086891
 C         0.092561         0.115982        -0.137015
 C         2.093838         1.441217        -0.034744
 O         3.545214         1.380488         0.381343
 C         3.741233         0.003933         0.913068
 C         2.405249        -0.578701         1.187426
 H         4.043540        -2.509901        -1.142399
 H         4.601417        -2.674424         0.464469
 H         3.023948        -3.370265         0.007832
 H        -0.253267        -0.745628        -0.742250
 H        -0.512850         0.034556         0.830070
 H        -0.210788         1.110620        -0.588400
 H         1.940117         1.976635        -0.943736
 H         1.712304         2.043361         0.735562
 H         4.601680        -0.265555         1.527892
 H         1.973829        -0.862926         2.132892
