19
Iteration:  3080
 C         3.882685        -2.489685        -0.059949
 C         3.134128        -1.271464         0.271504
 O         2.422121        -0.774105        -0.883526
 C         1.582294         0.173117        -0.085435
 C         0.159936         0.377198        -0.632262
 C         2.311945         1.450649        -0.017314
 O         3.499751         1.228056         0.603108
 C         3.433611        -0.047324         1.172284
 C         2.066928        -0.609236         1.251262
 H         3.022522        -3.246417        -0.362374
 H         4.397104        -2.295575        -1.018027
 H         4.548500        -2.877248         0.737736
 H         0.168392         1.391427        -0.975758
 H        -0.125762        -0.138838        -1.502834
 H        -0.497630         0.299319         0.227751
 H         2.693795         1.735998        -1.001778
 H         1.743227         2.262247         0.529735
 H         4.117738        -0.127206         2.040962
 H         1.371623        -0.682542         2.135832
