19
Iteration:  4260
 C         3.489602        -2.613411        -0.047022
 C         3.050239        -1.243695         0.282291
 O         2.615676        -0.549643        -0.893803
 C         1.590183         0.195692        -0.049588
 C         0.102745        -0.036393        -0.519038
 C         2.334099         1.603478        -0.060033
 O         3.651966         1.290667         0.503821
 C         3.506221        -0.068733         1.157752
 C         2.143439        -0.499794         1.256233
 H         2.640105        -3.320376         0.240440
 H         3.865121        -2.568372        -1.002876
 H         4.361701        -2.909440         0.601385
 H        -0.712889        -0.065384         0.230727
 H        -0.134178         0.895742        -1.117089
 H         0.208421        -0.918904        -1.204832
 H         2.480455         2.045711        -1.066416
 H         1.780538         2.437489         0.454146
 H         4.289568        -0.075323         1.961615
 H         1.402342        -0.824089         2.017364
