19
Iteration:  4326charge 0 multiplicity 1
 C         3.805046        -2.582380         0.278150
 C         3.109924        -1.169852         0.104787
 O         2.368014        -0.636671        -0.993413
 C         1.625529         0.202897        -0.078321
 C         0.104644         0.305676        -0.472691
 C         2.295209         1.468473        -0.016187
 O         3.532901         1.202881         0.576428
 C         3.557297        -0.114829         1.015043
 C         2.157812        -0.551123         1.132359
 H         3.080384        -3.285971        -0.243802
 H         4.717115        -2.781771        -0.203351
 H         3.910699        -2.794078         1.339249
 H        -0.607405         0.052124         0.257552
 H        -0.280310         1.336263        -0.733306
 H         0.131784        -0.281778        -1.399350
 H         2.367665         1.927773        -0.993796
 H         1.667430         2.089519         0.562433
 H         4.295889        -0.383471         1.770825
 H         1.488765        -1.048693         1.871273
