19
Iteration:  1744
 C         3.940999        -2.517361        -0.150025
 C         3.129282        -1.196953         0.093909
 O         2.279685        -0.733573        -0.967972
 C         1.498925         0.209162         0.122339
 C         0.000819         0.080384        -0.045331
 C         2.273791         1.525107        -0.089401
 O         3.608532         1.337706         0.389964
 C         3.546764        -0.039102         1.005162
 C         2.197758        -0.567427         1.236825
 H         3.706935        -2.723658        -1.191326
 H         5.063403        -2.281333        -0.149574
 H         3.765816        -3.481637         0.367752
 H        -0.414940        -0.926768        -0.009782
 H        -0.257092         0.471837         0.970796
 H        -0.505002         0.748557        -0.721963
 H         2.265743         1.751107        -1.186731
 H         1.913866         2.496120         0.403777
 H         4.485818        -0.324838         1.575086
 H         1.748847        -0.726273         2.219256
