19
Iteration:  4421charge 0 multiplicity 1
 C         3.594993        -2.551259         0.026377
 C         3.070600        -1.178763         0.187378
 O         2.486008        -0.576697        -0.923374
 C         1.530191         0.191695        -0.057768
 C         0.146411         0.029963        -0.624944
 C         2.321389         1.565413         0.022122
 O         3.621246         1.219835         0.579689
 C         3.560064        -0.077488         1.129535
 C         2.155608        -0.506003         1.246833
 H         2.664674        -3.202165        -0.020046
 H         4.211119        -2.670254        -0.893675
 H         4.210052        -2.925309         0.914573
 H        -0.507789         0.856268        -0.225935
 H         0.064584         0.204532        -1.658696
 H        -0.193583        -1.020609        -0.382284
 H         2.589688         1.993606        -0.966682
 H         1.920096         2.516189         0.567193
 H         4.193138        -0.225625         1.993990
 H         1.636015        -0.901355         2.136220
