19
Iteration:  1427charge 0 multiplicity 1
 C         3.935237        -2.428565         0.091335
 C         3.034887        -1.171697         0.157987
 O         2.137531        -0.811542        -0.894651
 C         1.516904         0.192894         0.128895
 C         0.062995         0.045878         0.268312
 C         2.137070         1.506668        -0.223133
 O         3.661063         1.227564         0.005202
 C         3.724684        -0.031412         0.778434
 C         2.284734        -0.385970         1.223774
 H         4.986134        -2.222685         0.033822
 H         3.691322        -2.846025         1.110695
 H         3.638803        -3.168800        -0.697376
 H        -0.245019        -0.980773         0.458160
 H        -0.419915         0.673763         1.039314
 H        -0.348968         0.364993        -0.705434
 H         1.978673         1.919919        -1.226599
 H         1.855096         2.135016         0.616886
 H         4.709362        -0.094428         1.260868
 H         2.061540        -0.580119         2.326218
