19
Iteration:  3399charge 0 multiplicity 1
 C         3.819498        -2.546900         0.104280
 C         3.089217        -1.158574         0.100562
 O         2.381576        -0.649700        -1.005692
 C         1.576981         0.242397        -0.162598
 C         0.039107         0.129991        -0.511978
 C         2.369727         1.589407         0.122535
 O         3.633843         1.190511         0.667184
 C         3.529937        -0.093483         1.094015
 C         2.067959        -0.549849         1.096604
 H         3.201658        -3.314007        -0.310592
 H         4.800537        -2.457959        -0.305042
 H         3.853619        -2.842810         1.144981
 H         0.061771         0.254678        -1.626024
 H        -0.436813        -0.878703        -0.247425
 H        -0.590549         0.975851        -0.236204
 H         2.555900         2.167310        -0.729378
 H         1.806485         2.109662         0.882829
 H         4.159490        -0.589314         1.805488
 H         1.485094        -0.836620         2.029991
