19
Iteration:  4542
 C         3.911475        -2.475889        -0.228126
 C         3.098440        -1.247999         0.177803
 O         2.385137        -0.783171        -0.923081
 C         1.577150         0.217923        -0.031764
 C         0.093876         0.229444        -0.561245
 C         2.407540         1.548011        -0.023124
 O         3.657350         1.179348         0.678406
 C         3.369390        -0.051408         1.250169
 C         1.973530        -0.495647         1.237451
 H         3.324542        -3.122894        -0.855098
 H         4.905648        -2.226598        -0.504241
 H         4.012994        -3.119213         0.670829
 H         0.002422        -0.237985        -1.539987
 H        -0.598798        -0.398863         0.035235
 H        -0.306963         1.264089        -0.493807
 H         2.611402         1.950225        -0.998010
 H         1.961655         2.325025         0.574323
 H         3.956895        -0.221236         2.168007
 H         1.324900        -0.656625         2.127137
