19
Iteration:  3678
 C         3.669036        -2.642262         0.131437
 C         3.082043        -1.272003         0.164625
 O         2.449506        -0.631629        -1.072373
 C         1.580703         0.217180        -0.069480
 C         0.166305         0.239735        -0.518185
 C         2.240717         1.498526         0.098887
 O         3.507692         1.285280         0.601818
 C         3.595849        -0.066847         1.038449
 C         2.208750        -0.519132         1.195907
 H         2.721064        -3.310659         0.137183
 H         4.374079        -2.675835        -0.723913
 H         4.272923        -2.848558         0.974990
 H         0.112158         1.249610        -0.913681
 H         0.311300        -0.632484        -1.356723
 H        -0.652531         0.048751         0.248358
 H         2.372653         2.064754        -0.962771
 H         1.785119         2.161642         0.863965
 H         4.333683        -0.384228         1.837970
 H         1.583472        -0.995764         2.037271
