19
Iteration:  3067
 C         3.834050        -2.475847        -0.016849
 C         3.093535        -1.171447         0.295395
 O         2.490785        -0.659046        -0.917186
 C         1.588331         0.081609        -0.101680
 C         0.192461         0.374908        -0.527756
 C         2.289444         1.440209        -0.101645
 O         3.581875         1.165761         0.587477
 C         3.404634        -0.099826         1.217991
 C         1.993361        -0.572742         1.171056
 H         3.226015        -3.356302        -0.345391
 H         4.487162        -2.212051        -0.815945
 H         4.564708        -2.839102         0.744952
 H         0.021267         1.429258        -0.814322
 H        -0.098390        -0.349945        -1.206155
 H        -0.558421         0.211107         0.282418
 H         2.260323         1.788184        -1.189713
 H         1.694801         2.254358         0.368740
 H         4.029422        -0.358240         2.123465
 H         1.512891        -1.007489         2.011614
