19
Iteration:   771
 C         3.667341        -2.573130         0.121539
 C         3.137269        -1.175996         0.052317
 O         2.076228        -0.872898        -0.856247
 C         1.615327         0.135257         0.171713
 C         0.055097        -0.002399         0.125726
 C         2.124009         1.534293        -0.100593
 O         3.565185         1.469811         0.136495
 C         3.762824         0.081453         0.633893
 C         2.598048        -0.440414         1.288292
 H         4.687372        -2.693709         0.593525
 H         2.969857        -3.237870         0.601443
 H         3.730955        -2.948871        -0.938428
 H        -0.188892        -0.228774        -0.922660
 H        -0.431655        -0.944720         0.525495
 H        -0.343386         0.900429         0.584591
 H         1.983979         1.923674        -1.112250
 H         1.664912         2.194660         0.643459
 H         4.877596         0.101769         0.851318
 H         2.312523        -0.726443         2.277861
