19
Iteration:  4538
 C         3.874524        -2.492142        -0.211373
 C         3.102967        -1.260133         0.181583
 O         2.374300        -0.755076        -0.929047
 C         1.564969         0.194693        -0.036987
 C         0.104847         0.214406        -0.549236
 C         2.425332         1.545759        -0.023377
 O         3.644700         1.163428         0.687638
 C         3.397286        -0.045109         1.229009
 C         1.968737        -0.456557         1.234669
 H         3.472123        -3.136833        -1.018877
 H         4.982802        -2.194266        -0.500354
 H         4.139473        -3.039726         0.784547
 H         0.081313        -0.308164        -1.586293
 H        -0.638722        -0.414864        -0.085351
 H        -0.313266         1.250703        -0.269278
 H         2.627742         2.036220        -1.002281
 H         1.944999         2.350955         0.568038
 H         3.888154        -0.233626         2.156298
 H         1.296378        -0.667487         2.048847
