19
Iteration:  3192charge 0 multiplicity 1
 C         3.571580        -2.544317         0.009482
 C         3.106824        -1.191287         0.191195
 O         2.453364        -0.589849        -1.003278
 C         1.624161         0.173517        -0.130549
 C         0.189358         0.081366        -0.553027
 C         2.271611         1.534770         0.065718
 O         3.590120         1.328704         0.691601
 C         3.554273        -0.039324         1.113283
 C         2.149618        -0.624907         1.192478
 H         2.983422        -3.197334        -0.669241
 H         4.662988        -2.420212        -0.290295
 H         3.578397        -3.130773         0.921873
 H         0.265559         0.001253        -1.596413
 H        -0.332000        -0.884110        -0.318951
 H        -0.480988         0.825827        -0.297601
 H         2.616186         1.915117        -0.836768
 H         1.581758         2.133351         0.715573
 H         4.383627        -0.150049         1.863169
 H         1.490662        -0.989288         1.953261
