19
Iteration:  1282
 C         3.690353        -2.642549         0.277061
 C         3.219365        -1.128648         0.160601
 O         2.265051        -0.761978        -0.866717
 C         1.580789         0.145682         0.126280
 C         0.022784        -0.022430         0.283199
 C         2.095370         1.566207        -0.187829
 O         3.515260         1.253020        -0.119143
 C         3.760569         0.120517         0.668483
 C         2.417929        -0.379422         1.167473
 H         3.665359        -2.812829         1.392365
 H         3.113135        -3.270837        -0.292098
 H         4.715621        -2.641914        -0.095880
 H        -0.535627         0.825774        -0.052936
 H        -0.348210        -0.809822        -0.318220
 H        -0.144371        -0.242563         1.312432
 H         1.793084         1.912072        -1.159385
 H         1.753197         2.325769         0.573469
 H         4.644327         0.113254         1.357527
 H         2.460537        -0.573345         2.199532
