19
Iteration:   349charge 0 multiplicity 1
 C         3.432262        -2.628503         0.176899
 C         3.123241        -1.146336         0.161159
 O         2.394412        -0.642847        -1.012952
 C         1.606735         0.180916         0.202467
 C         0.142671        -0.240564         0.254949
 C         2.032649         1.627052        -0.055088
 O         3.571055         1.337948        -0.053829
 C         3.781329         0.095311         0.720896
 C         2.466973        -0.387978         1.175015
 H         4.317782        -2.831048         0.892318
 H         2.612983        -3.318127         0.425569
 H         3.867098        -3.001129        -0.737585
 H        -0.248013         0.232114        -0.661528
 H        -0.004151        -1.332352         0.038741
 H        -0.203392         0.018404         1.300111
 H         1.792725         2.010736        -1.034292
 H         1.585225         2.167802         0.754830
 H         4.635923         0.085311         1.270411
 H         2.220543        -0.545105         2.272208
