19
Iteration:  4664charge 0 multiplicity 1
 C         3.564876        -2.614643        -0.171035
 C         3.136374        -1.179442         0.156142
 O         2.565325        -0.477338        -0.979770
 C         1.527791         0.229462        -0.006413
 C         0.107877         0.034043        -0.627550
 C         2.255781         1.597785         0.061344
 O         3.619235         1.274862         0.696053
 C         3.543496        -0.026574         1.238128
 C         2.175817        -0.714273         1.246316
 H         2.661670        -3.401625        -0.268097
 H         4.101626        -2.515219        -1.112273
 H         4.221755        -3.122551         0.527561
 H        -0.667280        -0.162445         0.137390
 H        -0.357068         0.993308        -1.186008
 H         0.134847        -0.941085        -1.099280
 H         2.422460         1.889675        -0.993691
 H         1.953617         2.368125         0.739257
 H         4.264860        -0.092576         2.050540
 H         1.625696        -1.086867         2.105852
