19
Iteration:  4139charge 0 multiplicity 1
 C         3.831196        -2.574658        -0.128484
 C         3.018190        -1.230026         0.268956
 O         2.321459        -0.714013        -0.887432
 C         1.593236         0.250503        -0.031663
 C         0.164755         0.150979        -0.567466
 C         2.404384         1.561174        -0.023455
 O         3.633218         1.213580         0.539466
 C         3.455553        -0.061260         1.202840
 C         2.058620        -0.463932         1.267555
 H         3.325528        -3.002575        -1.046914
 H         4.816469        -2.306088        -0.366859
 H         3.834055        -3.418743         0.640014
 H        -0.300500         1.146365        -0.680427
 H         0.025822        -0.283012        -1.522086
 H        -0.336514        -0.530316         0.137947
 H         2.556908         2.029246        -1.033530
 H         2.038955         2.450612         0.540468
 H         4.067396        -0.385536         2.037493
 H         1.433967        -0.693003         2.126435
