19
Iteration:  1935charge 0 multiplicity 1
 C         3.921691        -2.489922        -0.191690
 C         3.174639        -1.241770         0.127564
 O         2.287230        -0.712777        -0.927211
 C         1.516138         0.068554         0.019261
 C        -0.039318         0.328359        -0.268537
 C         2.217427         1.467917        -0.065386
 O         3.597861         1.368674         0.581238
 C         3.519559        -0.031595         1.017321
 C         2.280264        -0.692454         1.276771
 H         4.971005        -2.233934        -0.553111
 H         4.109764        -3.085953         0.710915
 H         3.404841        -3.333843        -0.706590
 H        -0.351979        -0.301237        -1.069948
 H        -0.534800         0.035299         0.662251
 H        -0.166683         1.365620        -0.562658
 H         2.274645         1.966198        -1.054454
 H         1.617510         2.148804         0.551709
 H         4.517351        -0.291842         1.459464
 H         1.956803        -1.078135         2.232969
