19
Iteration:  4294charge 0 multiplicity 1
 C         3.597342        -2.578366         0.057088
 C         3.100369        -1.234269         0.217241
 O         2.478290        -0.699685        -0.949074
 C         1.668342         0.223959        -0.082075
 C         0.137136         0.055292        -0.477337
 C         2.340238         1.632539         0.003112
 O         3.642788         1.286622         0.500007
 C         3.485955        -0.035404         1.170105
 C         2.095824        -0.504652         1.184900
 H         2.652082        -3.193527        -0.128674
 H         4.085945        -2.685946        -0.896894
 H         4.159058        -2.972550         0.876018
 H        -0.550965        -0.351683         0.222393
 H        -0.214548         1.039544        -0.938726
 H         0.074229        -0.575289        -1.393110
 H         2.486626         2.142490        -0.948084
 H         1.715966         2.184752         0.737830
 H         4.236032        -0.160965         1.959106
 H         1.376588        -0.928737         1.937609
