19
Iteration:  4129
 C         3.776659        -2.605629        -0.101846
 C         3.130816        -1.203448         0.296495
 O         2.314113        -0.659749        -0.949477
 C         1.595670         0.144280        -0.071696
 C         0.135703         0.155139        -0.557052
 C         2.383718         1.590334         0.015535
 O         3.683796         1.211976         0.579626
 C         3.468371        -0.051383         1.192362
 C         2.010677        -0.433100         1.252797
 H         3.163195        -2.903511        -1.024119
 H         4.711318        -2.524340        -0.513495
 H         3.831247        -3.389084         0.731856
 H        -0.460146         1.050353        -0.478947
 H         0.322803        -0.307448        -1.516414
 H        -0.534895        -0.521056         0.020930
 H         2.554730         1.601881        -1.056648
 H         1.746607         2.258760         0.555626
 H         4.328085        -0.101670         1.868450
 H         1.402710        -0.556853         2.136169
