19
Iteration:  4490
 C         3.734035        -2.572709         0.141103
 C         3.128242        -1.177139         0.157878
 O         2.432061        -0.545502        -1.028092
 C         1.625021         0.174517        -0.085585
 C         0.135152         0.199317        -0.486879
 C         2.298005         1.516317         0.055139
 O         3.599469         1.223783         0.591812
 C         3.499656        -0.109138         1.141900
 C         2.067063        -0.602508         1.075792
 H         2.871950        -3.312016        -0.154333
 H         4.612588        -2.684858        -0.540361
 H         4.076326        -2.875709         1.099482
 H         0.036325         1.026643        -1.115254
 H        -0.352103        -0.577482        -1.146969
 H        -0.449648         0.325155         0.384212
 H         2.396370         1.984317        -0.951467
 H         1.752970         2.287225         0.706833
 H         4.178825        -0.336631         1.995106
 H         1.580417        -1.234145         1.825310
