19
Iteration:  3857charge 0 multiplicity 1
 C         3.605500        -2.501888         0.063812
 C         2.977426        -1.197618         0.222702
 O         2.437825        -0.691044        -0.946817
 C         1.626190         0.184273         0.013542
 C         0.183518         0.115225        -0.516032
 C         2.386266         1.549027        -0.091798
 O         3.675330         1.198942         0.500705
 C         3.494024         0.038065         1.144590
 C         2.076979        -0.548335         1.212342
 H         2.973464        -3.436139         0.168518
 H         3.896771        -2.522515        -0.933573
 H         4.514914        -2.681724         0.708177
 H        -0.286000        -0.917225        -0.303689
 H        -0.490158         0.711696         0.048530
 H         0.332525         0.415581        -1.558997
 H         2.399309         1.826703        -1.137244
 H         1.935023         2.444143         0.389500
 H         4.091906        -0.102740         2.101190
 H         1.676334        -0.934178         2.182642
