19
Iteration:   158
 C         3.483928        -2.766008         0.129907
 C         3.166434        -1.188757         0.070299
 O         2.338930        -0.579502        -0.937670
 C         1.601297         0.149775         0.068007
 C         0.155770        -0.216222         0.189651
 C         2.105052         1.600399        -0.034071
 O         3.502106         1.381478         0.042655
 C         3.745934         0.128394         0.756467
 C         2.475789        -0.347399         1.197345
 H         4.068579        -2.868749         1.045206
 H         2.530228        -3.357248         0.156513
 H         4.034682        -3.214960        -0.720698
 H        -0.345435        -0.262822        -0.810207
 H         0.072487        -1.214592         0.678563
 H        -0.228352         0.470702         0.979372
 H         1.974753         2.155884        -0.982237
 H         1.855881         2.214124         0.843255
 H         4.493874         0.144438         1.463003
 H         2.327471        -0.611766         2.224092
