19
Iteration:  1889charge 0 multiplicity 1
 C         3.700481        -2.530473        -0.108289
 C         3.083473        -1.146346         0.133133
 O         2.363057        -0.502523        -1.036360
 C         1.600295         0.199879        -0.030749
 C         0.099693        -0.144793        -0.132729
 C         2.259351         1.613426         0.047513
 O         3.648701         1.288727         0.498675
 C         3.592505        -0.020374         1.014777
 C         2.174861        -0.630472         1.198919
 H         4.727129        -2.615149         0.326356
 H         3.106356        -3.418399         0.161447
 H         3.702443        -2.693421        -1.185170
 H        -0.144560        -1.203049        -0.223358
 H        -0.273689         0.282875         0.774102
 H        -0.445329         0.420525        -0.917541
 H         2.321671         1.913688        -1.014723
 H         1.732391         2.361882         0.547377
 H         4.427110        -0.358987         1.679279
 H         1.584516        -0.754214         2.096007
