19
Iteration:  1135
 C         3.591485        -2.556318         0.161634
 C         3.167662        -1.111789         0.158690
 O         2.082697        -0.814007        -0.832716
 C         1.524405         0.068233         0.213470
 C         0.088347        -0.095471         0.072993
 C         2.141572         1.483954        -0.166884
 O         3.540548         1.375399        -0.000615
 C         3.822808         0.163814         0.654190
 C         2.664062        -0.367647         1.341180
 H         4.536263        -2.613162         0.652955
 H         2.765822        -3.077820         0.784072
 H         3.612685        -2.954693        -0.883558
 H        -0.142004        -0.338726        -0.956204
 H        -0.280806        -0.767808         0.816763
 H        -0.359118         0.906249         0.084472
 H         1.849084         1.798114        -1.218464
 H         1.878561         2.335438         0.526894
 H         4.769471         0.098370         1.161368
 H         2.439982        -0.788357         2.242242
