19
Iteration:  4290
 C         3.568651        -2.591636         0.017328
 C         3.125634        -1.232268         0.238395
 O         2.477515        -0.684104        -0.939654
 C         1.671968         0.241994        -0.089872
 C         0.176060         0.068775        -0.484353
 C         2.330943         1.595702         0.006720
 O         3.624290         1.265442         0.500585
 C         3.475944        -0.031264         1.151558
 C         2.076636        -0.468362         1.200133
 H         2.638966        -3.203120         0.028054
 H         4.154901        -2.579720        -0.912591
 H         4.190946        -3.035911         0.853582
 H        -0.494764        -0.474078         0.257002
 H        -0.212260         0.957273        -0.886790
 H         0.154847        -0.697310        -1.282589
 H         2.518431         2.137708        -0.934910
 H         1.747116         2.175760         0.701421
 H         4.228079        -0.071363         1.960000
 H         1.393146        -0.906398         1.880301
