19
Iteration:  2856charge 0 multiplicity 1
 C         3.792032        -2.557375        -0.005524
 C         3.158840        -1.229131         0.258039
 O         2.420145        -0.710203        -0.995152
 C         1.552376         0.172589        -0.122210
 C         0.067405         0.295878        -0.511073
 C         2.300510         1.528918         0.036528
 O         3.539755         1.309443         0.679321
 C         3.553486        -0.061884         1.070861
 C         2.152079        -0.657527         1.172489
 H         3.097215        -3.200708        -0.621446
 H         4.768479        -2.392484        -0.644597
 H         3.983622        -3.366859         0.724823
 H        -0.272578        -0.469471        -1.192257
 H        -0.457252         0.292376         0.505843
 H        -0.125315         1.155951        -1.100376
 H         2.444748         2.106352        -0.968157
 H         1.742688         2.279655         0.638116
 H         4.140256        -0.334558         1.990131
 H         1.452035        -0.961572         2.052977
