19
Iteration:    56charge 0 multiplicity 1
 C         3.982651        -2.284184        -0.156751
 C         3.146183        -1.123467         0.228194
 O         2.068336        -1.010648        -0.747034
 C         1.525968         0.123280         0.107308
 C        -0.044418         0.302979         0.131637
 C         2.225810         1.274706        -0.321766
 O         3.617639         1.218211         0.123595
 C         3.700293         0.036062         0.935311
 C         2.312156        -0.387914         1.340300
 H         4.934886        -2.553487         0.335690
 H         3.360710        -3.196397        -0.216906
 H         4.242540        -2.020967        -1.159958
 H        -0.254970         1.356105         0.132006
 H        -0.385286        -0.236941        -0.734375
 H        -0.430073        -0.061636         1.070683
 H         2.203156         1.364678        -1.398716
 H         1.864314         2.209911         0.072183
 H         4.575668         0.070663         1.671076
 H         1.770922        -0.968160         2.145320
