19
Iteration:  3558
 C         3.591612        -2.622948         0.018436
 C         3.117210        -1.213720         0.213443
 O         2.549854        -0.657665        -0.995986
 C         1.669647         0.162389        -0.031350
 C         0.203026         0.204366        -0.487095
 C         2.183453         1.600678         0.078720
 O         3.496697         1.310027         0.618607
 C         3.575028        -0.075538         1.045218
 C         2.138236        -0.598413         1.130894
 H         2.821921        -3.190042        -0.648244
 H         4.660068        -2.678021        -0.227157
 H         3.631595        -3.357996         0.804117
 H         0.233089         0.078424        -1.552250
 H        -0.543630        -0.504412         0.021149
 H        -0.209237         1.234611        -0.317812
 H         2.331652         2.051224        -0.979827
 H         1.530963         2.299287         0.619825
 H         4.324872        -0.276428         1.764751
 H         1.791108        -0.978243         2.053391
