19
Iteration:  3866charge 0 multiplicity 1
 C         3.601805        -2.570302         0.016603
 C         3.063350        -1.192298         0.290224
 O         2.382846        -0.666942        -0.896568
 C         1.597744         0.235224        -0.012300
 C         0.220230         0.083012        -0.522444
 C         2.359298         1.554230        -0.085600
 O         3.657729         1.260868         0.485620
 C         3.501545        -0.029905         1.107438
 C         2.092548        -0.546108         1.238898
 H         2.766716        -3.289861         0.258474
 H         4.040970        -2.642434        -0.894699
 H         4.400459        -2.767637         0.762427
 H        -0.021067        -1.021548        -0.732201
 H        -0.545490         0.656799        -0.014279
 H         0.170815         0.502245        -1.537686
 H         2.612983         1.805798        -1.138433
 H         2.008968         2.437684         0.497646
 H         4.201499        -0.200607         1.954698
 H         1.528192        -0.792435         2.145642
