19
Iteration:  2539charge 0 multiplicity 1
 C         3.913108        -2.375375        -0.269645
 C         3.083242        -1.211198         0.094929
 O         2.307127        -0.649316        -0.987664
 C         1.578168         0.207565         0.003941
 C         0.153779         0.239586        -0.618897
 C         2.192411         1.469255         0.204653
 O         3.582379         1.209998         0.856241
 C         3.525545        -0.143694         1.156359
 C         2.150001        -0.673106         1.155730
 H         3.284009        -3.158548        -0.456285
 H         4.568168        -2.241656        -1.134438
 H         4.541554        -2.543716         0.599695
 H        -0.571113        -0.447443        -0.177923
 H        -0.200272         1.262307        -0.596428
 H         0.128712        -0.069082        -1.711545
 H         2.246758         1.995911        -0.825226
 H         1.684466         2.089274         0.933592
 H         4.405566        -0.310544         1.882535
 H         1.570769        -1.112727         1.993953
