19
Iteration:  3099charge 0 multiplicity 1
 C         3.841980        -2.580065        -0.030693
 C         3.059468        -1.228133         0.229433
 O         2.320037        -0.818683        -0.889030
 C         1.561395         0.164874        -0.092861
 C         0.155739         0.327212        -0.677168
 C         2.291602         1.583121        -0.001112
 O         3.617924         1.335986         0.720411
 C         3.543468        -0.049291         1.128096
 C         2.096812        -0.587481         1.234517
 H         3.280809        -3.445518        -0.266383
 H         4.409851        -2.234896        -0.825502
 H         4.545621        -2.803103         0.784206
 H         0.017656         1.253061        -1.330827
 H         0.122527        -0.383186        -1.470124
 H        -0.769834         0.124629        -0.062242
 H         2.412616         1.834422        -1.109923
 H         1.678326         2.120665         0.700257
 H         4.113405        -0.603237         1.904668
 H         1.624127        -1.107115         2.021831
