19
Iteration:  3993charge 0 multiplicity 1
 C         3.732690        -2.510399         0.014990
 C         3.033421        -1.187035         0.296736
 O         2.406006        -0.753259        -0.896443
 C         1.584648         0.116295        -0.068281
 C         0.172342         0.278074        -0.557517
 C         2.354405         1.455436        -0.103467
 O         3.675527         1.258141         0.550492
 C         3.504122        -0.009647         1.138722
 C         2.019181        -0.532289         1.253603
 H         3.033356        -3.188374        -0.420543
 H         4.346759        -2.462330        -0.951451
 H         4.274444        -2.804123         0.865056
 H        -0.340887        -0.676946        -0.410594
 H        -0.487559         0.944748         0.025452
 H         0.195805         0.565516        -1.606960
 H         2.497796         1.704333        -1.181264
 H         1.768539         2.213369         0.448166
 H         4.144405        -0.230466         2.037273
 H         1.506779        -0.876883         2.156264
