19
Iteration:  2065
 C         3.609670        -2.569787        -0.127015
 C         3.147808        -1.217897         0.021894
 O         2.408956        -0.596592        -1.007732
 C         1.596931         0.135639        -0.024599
 C         0.158328         0.029772        -0.378337
 C         2.195915         1.601761         0.224162
 O         3.550278         1.376005         0.706437
 C         3.596154         0.011661         1.054177
 C         2.289575        -0.667551         1.090450
 H         3.108956        -3.388364         0.499372
 H         3.419899        -2.682663        -1.181573
 H         4.705529        -2.700786        -0.016963
 H        -0.379888        -0.724169         0.198777
 H        -0.369284         0.995224        -0.303541
 H         0.078957        -0.235011        -1.450732
 H         2.302829         2.015109        -0.823625
 H         1.587845         2.244903         0.933363
 H         4.360918        -0.194189         1.770568
 H         1.758373        -1.080943         1.985979
