19
Iteration:  1077charge 0 multiplicity 1
 C         3.666329        -2.512607         0.114670
 C         3.094742        -1.204989         0.171659
 O         2.186995        -0.765896        -0.865973
 C         1.513978         0.180175         0.106086
 C         0.148735        -0.088806         0.323781
 C         2.102353         1.497713        -0.208255
 O         3.666279         1.239261        -0.098633
 C         3.728076         0.173679         0.722593
 C         2.430251        -0.311702         1.264148
 H         3.897002        -2.902081         1.180886
 H         2.923179        -3.192596        -0.236413
 H         4.625667        -2.486025        -0.478569
 H        -0.492483        -0.034720        -0.567028
 H         0.034395        -1.175476         0.448418
 H        -0.289143         0.336506         1.259458
 H         1.902411         1.871022        -1.195168
 H         1.992078         2.247163         0.579811
 H         4.674548         0.056716         1.343557
 H         1.914977        -0.497401         2.251454
