19
Iteration:     7
 C         3.803634        -2.522765         0.043968
 C         3.092287        -1.182086         0.169007
 O         2.141438        -0.816781        -0.805854
 C         1.511762         0.185922         0.127910
 C         0.058969         0.065141         0.146610
 C         2.193487         1.467459        -0.206164
 O         3.584968         1.247979         0.073229
 C         3.702240         0.073286         0.741017
 C         2.387384        -0.344274         1.267766
 H         4.522997        -2.649699         0.866795
 H         3.206215        -3.444004         0.189008
 H         4.483093        -2.547417        -0.864286
 H        -0.426849         0.713869         0.920695
 H        -0.129983         0.173245        -0.947885
 H        -0.068249        -0.978041         0.495399
 H         2.169198         1.793582        -1.270411
 H         1.891127         2.357592         0.391668
 H         4.630743         0.039307         1.295852
 H         2.140051        -0.675867         2.264923
