19
Iteration:   307
 C         3.589788        -2.566661         0.061154
 C         3.165702        -1.129564         0.110437
 O         2.163627        -0.861480        -0.822449
 C         1.543527         0.093305         0.219538
 C         0.070252        -0.108332         0.172907
 C         2.082639         1.515098        -0.185157
 O         3.637425         1.419292         0.033610
 C         3.788453         0.173250         0.698504
 C         2.564997        -0.339931         1.305536
 H         3.966548        -3.075634         1.032798
 H         2.599736        -3.118064        -0.153718
 H         4.282727        -2.671184        -0.725323
 H        -0.323809         0.710609        -0.455040
 H        -0.153247        -0.901022        -0.573863
 H        -0.535672        -0.231050         1.115890
 H         1.866416         1.716157        -1.236075
 H         1.842304         2.387911         0.485377
 H         4.618483         0.033347         1.310659
 H         2.407473        -0.820907         2.327493
