19
Iteration:  1498charge 0 multiplicity 1
 C         3.526687        -2.629686         0.037007
 C         3.171989        -1.103035         0.170000
 O         2.271740        -0.778708        -0.839413
 C         1.563590         0.165896         0.082498
 C         0.050729        -0.091846         0.073484
 C         2.097620         1.519593        -0.149965
 O         3.591759         1.411404         0.050056
 C         3.780299         0.157986         0.782254
 C         2.547662        -0.476874         1.376623
 H         3.412720        -2.856551        -1.048628
 H         4.551537        -2.729111         0.254669
 H         2.945037        -3.324134         0.602673
 H        -0.474108         0.024129         1.031239
 H        -0.593242         0.458149        -0.629877
 H        -0.036005        -1.168515        -0.247938
 H         1.969709         2.009365        -1.125145
 H         1.767862         2.106928         0.740812
 H         4.725305         0.198796         1.390538
 H         2.106703        -0.743982         2.299358
