19
Iteration:  4827
 C         3.575730        -2.572242        -0.284871
 C         3.152645        -1.145144         0.095842
 O         2.579122        -0.382592        -0.942653
 C         1.571857         0.241351        -0.005372
 C         0.184035        -0.032429        -0.609043
 C         2.277141         1.607574         0.165672
 O         3.488430         1.223007         0.749340
 C         3.550991        -0.107763         1.175259
 C         2.116388        -0.699340         1.214493
 H         2.712052        -3.308294        -0.146828
 H         4.044814        -2.593775        -1.260616
 H         4.226516        -2.913099         0.488065
 H         0.310346        -0.689616        -1.448706
 H        -0.385617        -0.786506         0.102954
 H        -0.333563         0.885058        -0.717666
 H         2.532094         2.044917        -0.826749
 H         1.786846         2.287817         0.923847
 H         4.273182        -0.142532         1.976569
 H         1.661327        -1.126750         2.102624
