19
Iteration:  1073charge 0 multiplicity 1
 C         3.726637        -2.481798         0.155627
 C         3.078624        -1.168231         0.160549
 O         2.124264        -0.764242        -0.885241
 C         1.505333         0.159426         0.109932
 C         0.137335        -0.089669         0.337290
 C         2.144373         1.491228        -0.217058
 O         3.688133         1.246970        -0.090221
 C         3.726982         0.131001         0.737081
 C         2.388933        -0.327745         1.250685
 H         3.905115        -2.817433         1.149665
 H         3.022583        -3.206780        -0.313671
 H         4.609745        -2.543757        -0.444755
 H        -0.498650         0.127056        -0.545542
 H         0.037759        -1.212866         0.370733
 H        -0.203881         0.324121         1.275930
 H         1.965123         1.857525        -1.230237
 H         2.013022         2.288611         0.487705
 H         4.643732         0.111262         1.217834
 H         2.053886        -0.623843         2.321285
