19
Iteration:  4440
 C         3.519495        -2.645206         0.128372
 C         3.173663        -1.162894         0.155560
 O         2.459572        -0.612563        -1.026372
 C         1.683842         0.177856        -0.115056
 C         0.218378         0.113080        -0.507801
 C         2.218888         1.549666         0.104218
 O         3.613686         1.316786         0.602592
 C         3.554546         0.001040         1.102529
 C         2.102016        -0.602463         1.122433
 H         2.669177        -3.288009         0.098300
 H         4.043639        -2.937621        -0.850342
 H         4.260208        -2.851440         0.949980
 H        -0.425673         1.062846        -0.575873
 H         0.239315        -0.238646        -1.555707
 H        -0.244852        -0.804667        -0.069264
 H         2.307939         2.268036        -0.724785
 H         1.649989         2.066648         0.884227
 H         4.282257        -0.218271         1.912141
 H         1.454447        -0.897041         1.943809
