19
Iteration:  1709charge 0 multiplicity 1
 C         3.672820        -2.537980        -0.050671
 C         3.224009        -1.131008         0.058564
 O         2.251042        -0.733407        -0.935497
 C         1.521938         0.064631         0.123691
 C         0.051428         0.090415        -0.187625
 C         2.133067         1.463448         0.086342
 O         3.577011         1.401140         0.340116
 C         3.740409         0.043849         0.887936
 C         2.402858        -0.541359         1.250797
 H         4.286951        -2.561764        -0.957164
 H         4.361833        -2.886781         0.748292
 H         2.757114        -3.230241        -0.118946
 H        -0.251835        -0.686412        -0.912568
 H        -0.365892        -0.084933         0.860049
 H        -0.278112         1.090288        -0.530528
 H         2.000935         1.820657        -0.935479
 H         1.473877         1.980467         0.842771
 H         4.740240        -0.023984         1.420898
 H         2.118282        -0.925455         2.188687
