19
Iteration:  2321charge 0 multiplicity 1
 C         3.999984        -2.344836        -0.265658
 C         3.019944        -1.294575         0.016573
 O         2.429898        -0.545686        -1.057707
 C         1.594731         0.167359        -0.128849
 C         0.056166         0.275781        -0.369962
 C         2.354158         1.567118         0.109104
 O         3.504582         1.195634         0.909272
 C         3.422882        -0.225724         1.259808
 C         2.066964        -0.755609         1.057409
 H         3.452766        -3.155577        -0.743549
 H         4.909218        -1.897517        -0.784175
 H         4.449125        -2.768791         0.682045
 H        -0.125998         0.437635        -1.415093
 H        -0.479063        -0.601093        -0.039353
 H        -0.353414         1.136827         0.227024
 H         2.847457         1.963473        -0.810479
 H         1.601819         2.156232         0.669724
 H         4.234896        -0.441428         1.858605
 H         1.378197        -1.311064         1.712881
