19
Iteration:  2214
 C         3.654936        -2.533724        -0.200848
 C         3.161862        -1.163580         0.050418
 O         2.607645        -0.359891        -1.079257
 C         1.609808         0.194731        -0.061544
 C         0.132284        -0.015163        -0.438273
 C         2.152031         1.611642         0.298884
 O         3.523828         1.235550         0.779204
 C         3.598256        -0.138239         1.150454
 C         2.117786        -0.733055         1.011955
 H         4.204692        -2.517315        -1.170777
 H         4.407163        -2.908790         0.564335
 H         2.801955        -3.264570        -0.214272
 H        -0.294012         0.810432        -0.991022
 H        -0.245613        -0.936994        -0.880830
 H        -0.321973         0.104064         0.579812
 H         2.334164         2.371380        -0.435258
 H         1.439594         1.976904         1.082922
 H         4.107508        -0.385447         2.035494
 H         1.401604        -1.324969         1.613590
