19
Iteration:  1421
 C         3.958820        -2.406306         0.087637
 C         3.011021        -1.184039         0.175959
 O         2.147412        -0.839509        -0.867768
 C         1.572787         0.175102         0.113714
 C         0.035818         0.093407         0.244438
 C         2.199284         1.512533        -0.208680
 O         3.612390         1.204995        -0.014656
 C         3.649229         0.013502         0.762828
 C         2.341510        -0.392937         1.263552
 H         5.062000        -2.163413        -0.000650
 H         3.763514        -3.128082         0.903619
 H         3.693963        -3.117323        -0.669604
 H        -0.198805        -1.011611         0.243545
 H        -0.446582         0.478051         1.185678
 H        -0.595575         0.551871        -0.546432
 H         2.024630         1.966928        -1.208838
 H         1.799292         2.318532         0.503109
 H         4.540286        -0.310647         1.300976
 H         2.022613        -0.575850         2.228673
