19
Iteration:  4962
 C         3.934994        -2.417827        -0.360239
 C         3.135899        -1.239351         0.142367
 O         2.517954        -0.511137        -0.955897
 C         1.559611         0.200377        -0.076307
 C         0.097838         0.229127        -0.470479
 C         2.301718         1.589292         0.132509
 O         3.525014         1.149548         0.837085
 C         3.426387        -0.236953         1.174802
 C         1.989474        -0.678445         1.152813
 H         3.286882        -3.001039        -0.881409
 H         4.824594        -2.136006        -0.885558
 H         4.167807        -3.099365         0.472385
 H        -0.560785         0.111180         0.414829
 H        -0.225137         1.085396        -1.094454
 H        -0.087291        -0.662438        -1.162253
 H         2.611699         2.086361        -0.793129
 H         1.645690         2.225623         0.793747
 H         4.064312        -0.378244         2.043384
 H         1.286273        -1.205381         1.776796
