19
Iteration:  2807
 C         3.595470        -2.498658        -0.044400
 C         3.104374        -1.178153         0.186461
 O         2.577062        -0.433900        -0.928362
 C         1.532331         0.242055        -0.107075
 C         0.110512        -0.082820        -0.490288
 C         2.301988         1.654112         0.125575
 O         3.656513         1.175906         0.573724
 C         3.503134        -0.123273         1.117249
 C         2.079645        -0.582581         1.110817
 H         2.857079        -3.158899        -0.510405
 H         4.455382        -2.556929        -0.620284
 H         3.787896        -3.020672         0.898797
 H        -0.179371        -1.019226         0.063180
 H        -0.578071         0.689345        -0.203605
 H         0.063124        -0.529375        -1.575763
 H         2.351536         2.328081        -0.689010
 H         1.887952         2.323626         0.975044
 H         4.318279        -0.280185         1.815984
 H         1.627948        -1.208908         1.856303
