19
Iteration:  4890
 C         3.886070        -2.523193        -0.091882
 C         3.126363        -1.214044         0.046876
 O         2.424477        -0.452933        -1.087072
 C         1.538463         0.156480        -0.036661
 C         0.099908         0.267592        -0.487545
 C         2.224262         1.529736         0.231676
 O         3.517897         1.230583         0.827696
 C         3.599779        -0.209798         1.081597
 C         2.084091        -0.760529         1.034648
 H         3.272700        -3.384270        -0.554590
 H         4.920954        -2.222643        -0.517900
 H         4.223473        -2.901779         0.912328
 H        -0.480170        -0.703113        -0.539538
 H        -0.394358         1.201102         0.007800
 H         0.112976         0.621027        -1.573468
 H         2.224174         2.220931        -0.652268
 H         1.675321         2.049851         1.017274
 H         4.119693        -0.368271         2.007477
 H         1.589352        -1.313990         1.816507
