19
Iteration:  3050charge 0 multiplicity 1
 C         3.832328        -2.478426         0.081621
 C         3.016937        -1.229686         0.206859
 O         2.545561        -0.630082        -0.998655
 C         1.574154         0.261849        -0.132294
 C         0.051343         0.228199        -0.458488
 C         2.389463         1.518991        -0.040360
 O         3.619012         1.181987         0.572238
 C         3.439920        -0.071505         1.198879
 C         2.003169        -0.688559         1.154696
 H         3.123847        -3.305407        -0.173980
 H         4.626293        -2.265513        -0.705874
 H         4.253022        -2.720828         1.050429
 H        -0.207695         1.149404        -0.978298
 H        -0.270802        -0.582689        -1.228099
 H        -0.553766         0.170606         0.445876
 H         2.690161         1.816642        -1.013025
 H         1.864805         2.288045         0.575211
 H         4.077838        -0.240780         2.035093
 H         1.131706        -1.038009         1.800851
