19
Iteration:   670charge 0 multiplicity 1
 C         3.866467        -2.461454         0.010665
 C         3.137134        -1.175480         0.077664
 O         2.022020        -0.945629        -0.754924
 C         1.555963         0.108622         0.208782
 C         0.050758         0.181789         0.223358
 C         2.111452         1.436194        -0.219125
 O         3.562097         1.378088         0.082662
 C         3.741892         0.048252         0.677271
 C         2.513195        -0.437149         1.273148
 H         4.167009        -2.739615         0.982775
 H         3.323185        -3.313526        -0.544546
 H         4.758057        -2.376325        -0.615154
 H        -0.222542         0.997534        -0.504329
 H        -0.264034        -0.806140        -0.173322
 H        -0.489811         0.324277         1.153226
 H         2.069193         1.543205        -1.280028
 H         1.633989         2.353562         0.187333
 H         4.610676        -0.122231         1.255339
 H         2.385071        -0.598783         2.379278
