19
Iteration:  2367charge 0 multiplicity 1
 C         3.768366        -2.525583        -0.178277
 C         3.127261        -1.206039         0.093406
 O         2.493798        -0.444003        -1.062174
 C         1.553128         0.254660        -0.090528
 C         0.136287         0.147272        -0.547367
 C         2.161503         1.590746         0.270450
 O         3.583438         1.220710         0.787202
 C         3.512735        -0.202354         1.152090
 C         2.141000        -0.745894         1.114214
 H         3.161660        -3.472028         0.042849
 H         4.225808        -2.350963        -1.175428
 H         4.710333        -2.554558         0.430813
 H        -0.257311         1.042797        -1.002057
 H        -0.146287        -0.704863        -1.149294
 H        -0.421043        -0.014976         0.367590
 H         2.157218         2.110205        -0.675427
 H         1.775952         2.124465         1.180074
 H         4.263555        -0.336197         1.934995
 H         1.544084        -1.423264         1.796696
