19
Iteration:  1695charge 0 multiplicity 1
 C         3.673228        -2.589605        -0.046138
 C         3.207265        -1.135522         0.109554
 O         2.294703        -0.695978        -0.954079
 C         1.577385         0.097830         0.086903
 C         0.007309         0.014961        -0.119106
 C         2.147019         1.553220         0.119835
 O         3.542443         1.373551         0.297916
 C         3.715909         0.111480         0.817821
 C         2.437924        -0.580618         1.261009
 H         4.527438        -3.033276        -0.676674
 H         3.796115        -2.984771         0.941678
 H         2.788225        -3.133006        -0.484977
 H        -0.113033        -0.702548        -0.967848
 H        -0.785905        -0.337467         0.603109
 H        -0.328378         1.045125        -0.499601
 H         1.967631         2.179817        -0.742062
 H         1.988569         2.199710         0.941507
 H         4.491294        -0.039534         1.488878
 H         2.134624        -1.093762         2.241820
