19
Iteration:  2753
 C         3.731416        -2.531249        -0.038197
 C         3.155222        -1.213072         0.097927
 O         2.446294        -0.644479        -1.025673
 C         1.522060         0.132830        -0.043336
 C         0.123114         0.262290        -0.553867
 C         2.270686         1.538252         0.154042
 O         3.461225         1.390750         0.760563
 C         3.580988        -0.140020         1.110488
 C         2.244331        -0.737902         1.116746
 H         2.842707        -3.170956        -0.139675
 H         4.295630        -2.789233        -0.876720
 H         4.403403        -2.780516         0.777572
 H        -0.579913         0.574190         0.255181
 H         0.066960         0.975232        -1.382062
 H        -0.243492        -0.777969        -0.963193
 H         2.397492         1.936219        -0.829183
 H         1.634268         2.331409         0.735539
 H         4.503773        -0.165127         1.742264
 H         1.675750        -1.209518         1.919261
