19
Iteration:  3387
 C         3.722038        -2.479302         0.097680
 C         3.090426        -1.185520         0.158998
 O         2.420074        -0.539218        -1.003721
 C         1.568283         0.220846        -0.074971
 C         0.111789         0.116984        -0.568889
 C         2.322031         1.500952         0.133175
 O         3.720030         1.187027         0.544445
 C         3.446256        -0.110598         1.164922
 C         2.079600        -0.568296         1.095913
 H         3.195539        -3.154697        -0.608848
 H         4.694646        -2.478197        -0.303130
 H         3.820506        -2.871737         1.081601
 H        -0.054014        -0.088803        -1.633915
 H        -0.241723        -0.840399        -0.004745
 H        -0.521201         0.893501        -0.114571
 H         2.424691         2.077633        -0.748118
 H         1.806512         2.092677         0.884323
 H         4.096607        -0.162975         2.024904
 H         1.507735        -1.172133         1.800933
