19
Iteration:  2131
 C         4.033515        -2.339048        -0.256788
 C         3.071243        -1.225073         0.140614
 O         2.363714        -0.576335        -0.981838
 C         1.570463         0.146594        -0.039813
 C         0.084599         0.275024        -0.363481
 C         2.265261         1.481886         0.161483
 O         3.565483         1.128651         0.641611
 C         3.404883        -0.169786         1.163927
 C         2.075748        -0.661994         1.138278
 H         4.970885        -2.255152         0.344975
 H         3.632446        -3.276227         0.010430
 H         4.406962        -2.281277        -1.275469
 H        -0.323092         0.944424         0.427630
 H         0.075249         0.769635        -1.356817
 H        -0.461977        -0.654869        -0.420005
 H         2.549729         2.019782        -0.809501
 H         1.645765         2.154717         0.822717
 H         4.242808        -0.527080         1.692271
 H         1.368721        -1.232692         1.798533
