19
Iteration:  1418
 C         3.963340        -2.400634         0.089287
 C         3.022061        -1.210958         0.178290
 O         2.145395        -0.847616        -0.855340
 C         1.573509         0.172188         0.095220
 C         0.017038         0.108825         0.228582
 C         2.234332         1.517034        -0.191441
 O         3.589179         1.199579        -0.023410
 C         3.622024         0.045184         0.753994
 C         2.376380        -0.400528         1.286279
 H         4.968902        -2.143347        -0.003689
 H         3.847894        -3.227298         0.867526
 H         3.708031        -3.048377        -0.741649
 H        -0.179172        -0.999402         0.138175
 H        -0.376976         0.409598         1.263278
 H        -0.651314         0.623235        -0.483876
 H         2.062905         1.932075        -1.224650
 H         1.822697         2.361316         0.432434
 H         4.446251        -0.322202         1.317675
 H         1.937383        -0.599006         2.307442
