19
Iteration:   659
 C         3.952259        -2.397443        -0.004430
 C         3.072992        -1.249554         0.176695
 O         1.975041        -0.919725        -0.770224
 C         1.509345        -0.004444         0.191590
 C         0.038469         0.272435         0.219250
 C         2.190800         1.373627        -0.275429
 O         3.563860         1.425574         0.084575
 C         3.756897         0.113760         0.659750
 C         2.491444        -0.546805         1.282557
 H         4.213876        -2.716921         0.968538
 H         3.404179        -3.327996        -0.417331
 H         4.863352        -2.070747        -0.473696
 H        -0.165592         1.189934        -0.406170
 H        -0.567853        -0.579398        -0.186198
 H        -0.298436         0.563771         1.220726
 H         1.972624         1.454581        -1.319528
 H         1.725962         2.198667         0.335344
 H         4.727295         0.050247         1.035467
 H         2.391983        -1.006439         2.317110
