19
Iteration:  4084charge 0 multiplicity 1
 C         3.644418        -2.717878         0.181415
 C         3.097936        -1.158831         0.147234
 O         2.495319        -0.544704        -1.073602
 C         1.636383         0.194388        -0.073184
 C         0.213584         0.156438        -0.444274
 C         2.227694         1.574742         0.002999
 O         3.583291         1.271500         0.594426
 C         3.520008        -0.064701         1.075988
 C         2.094856        -0.602937         1.111818
 H         2.784222        -3.402982         0.016638
 H         4.332528        -3.040801        -0.525445
 H         4.076905        -2.782867         1.221941
 H        -0.382846         0.735647         0.344031
 H         0.185206         0.639960        -1.370849
 H        -0.259598        -0.821370        -0.527130
 H         2.449988         2.122153        -0.923909
 H         1.833224         2.122670         0.820054
 H         4.221697        -0.327364         1.830356
 H         1.338519        -0.847377         1.866217
