19
Iteration:   294charge 0 multiplicity 1
 C         3.770877        -2.596335         0.046340
 C         3.136726        -1.190033         0.150726
 O         2.105790        -0.769285        -0.812457
 C         1.562118         0.122634         0.192845
 C         0.050838         0.019699         0.154650
 C         2.171081         1.449327        -0.195909
 O         3.552393         1.371184         0.045591
 C         3.764029         0.097047         0.653938
 C         2.464922        -0.369385         1.325978
 H         4.252803        -2.821099         1.058194
 H         3.031430        -3.354916        -0.230250
 H         4.579530        -2.660489        -0.724845
 H        -0.433813         0.976524        -0.190485
 H        -0.202346        -0.955933        -0.321550
 H        -0.371824        -0.078104         1.220482
 H         2.019502         1.609908        -1.273983
 H         1.646113         2.269890         0.335527
 H         4.717157         0.052553         1.122176
 H         2.227130        -0.466193         2.431771
