19
Iteration:  3129
 C         3.698665        -2.515702         0.131424
 C         3.104793        -1.133585         0.106737
 O         2.490695        -0.617962        -1.033329
 C         1.600385         0.204303        -0.103782
 C         0.130630         0.165127        -0.503793
 C         2.297326         1.562573         0.024291
 O         3.570826         1.220260         0.671870
 C         3.497892        -0.134868         1.097641
 C         2.074655        -0.631356         1.170186
 H         2.980811        -3.314554        -0.061097
 H         4.545374        -2.638661        -0.676235
 H         4.170179        -2.500311         1.139066
 H        -0.009392         0.988782        -1.294587
 H         0.074538        -0.778117        -1.183303
 H        -0.612477         0.167967         0.347244
 H         2.515342         2.095640        -0.983128
 H         1.800458         2.323553         0.699903
 H         4.233376        -0.563034         1.843427
 H         1.516752        -1.019300         1.996883
