19
Iteration:  4282charge 0 multiplicity 1
 C         3.531425        -2.645000        -0.027603
 C         3.115063        -1.136764         0.307442
 O         2.495098        -0.623229        -0.917191
 C         1.605933         0.224517        -0.126572
 C         0.271668         0.058927        -0.508949
 C         2.308512         1.518638        -0.005129
 O         3.591203         1.204629         0.521904
 C         3.520867        -0.006178         1.114369
 C         2.062283        -0.430478         1.197836
 H         2.661173        -3.397872        -0.001388
 H         4.064295        -2.594861        -0.916692
 H         4.299460        -2.985043         0.695210
 H        -0.169291        -0.288614         0.430107
 H        -0.400827         0.901304        -0.784405
 H         0.378056        -0.798052        -1.205211
 H         2.407207         2.054260        -0.953681
 H         1.834938         2.255163         0.652126
 H         4.157053        -0.111914         2.031975
 H         1.453650        -0.741081         2.075212
