19
Iteration:  1499
 C         3.535713        -2.627516         0.040063
 C         3.170624        -1.100166         0.170175
 O         2.269278        -0.777159        -0.838615
 C         1.572189         0.161692         0.087044
 C         0.041558        -0.094495         0.069821
 C         2.101334         1.534606        -0.147595
 O         3.594611         1.402816         0.048202
 C         3.778893         0.155659         0.782681
 C         2.546852        -0.476689         1.369076
 H         3.396675        -2.846002        -1.059315
 H         4.558980        -2.723256         0.209691
 H         2.934628        -3.321988         0.625418
 H        -0.475951         0.038043         1.013469
 H        -0.606141         0.432949        -0.625383
 H        -0.046557        -1.183957        -0.198283
 H         1.969670         1.992224        -1.126068
 H         1.753628         2.124009         0.739449
 H         4.718506         0.191699         1.406404
 H         2.063570        -0.748660         2.306649
