19
Iteration:  3069charge 0 multiplicity 1
 C         3.843447        -2.482570        -0.017987
 C         3.101685        -1.170778         0.287232
 O         2.478611        -0.672902        -0.902717
 C         1.594264         0.097580        -0.110560
 C         0.198901         0.377959        -0.537808
 C         2.292249         1.437405        -0.087188
 O         3.562578         1.164571         0.587254
 C         3.404314        -0.082043         1.207582
 C         2.016847        -0.573882         1.183705
 H         3.162700        -3.397342        -0.357651
 H         4.478063        -2.145528        -0.861439
 H         4.585421        -2.882815         0.722253
 H         0.055286         1.395340        -0.824761
 H        -0.150881        -0.291763        -1.276113
 H        -0.547249         0.235311         0.250391
 H         2.289583         1.689567        -1.148964
 H         1.674791         2.243927         0.394732
 H         3.962493        -0.400360         2.098297
 H         1.463144        -0.967161         2.074227
