19
Iteration:   386
 C         3.785367        -2.503776         0.092239
 C         3.192781        -1.144577         0.053314
 O         2.043013        -0.807959        -0.910405
 C         1.510195         0.134283         0.113974
 C        -0.000842        -0.045628         0.214238
 C         2.154911         1.522317        -0.117051
 O         3.705306         1.328366         0.087524
 C         3.774579         0.074183         0.767083
 C         2.403890        -0.418709         1.235071
 H         4.643055        -2.439232         0.752434
 H         3.010620        -3.352977         0.344584
 H         4.132533        -2.725375        -0.948367
 H        -0.317247        -0.032222        -0.840259
 H        -0.298077        -0.978668         0.685121
 H        -0.611435         0.740776         0.657808
 H         2.129334         1.966684        -1.128031
 H         1.812287         2.285680         0.639708
 H         4.644763        -0.129871         1.545903
 H         2.077245        -0.483651         2.246226
