19
Iteration:  4695
 C         3.695071        -2.489842        -0.179941
 C         3.089561        -1.191846         0.155977
 O         2.433738        -0.651569        -0.933806
 C         1.624420         0.196530        -0.054930
 C         0.263792         0.152618        -0.538331
 C         2.203805         1.552615         0.084739
 O         3.536859         1.236256         0.698362
 C         3.551194        -0.121622         1.158444
 C         2.102905        -0.629406         1.185378
 H         3.142431        -3.128826        -0.880580
 H         4.492393        -2.259076        -0.873281
 H         4.124266        -2.900691         0.720481
 H        -0.204689         0.852936         0.162468
 H         0.078433         0.492062        -1.672102
 H        -0.308571        -0.743847        -0.318518
 H         2.418215         2.079237        -0.852982
 H         1.819343         2.293426         0.843190
 H         4.194335        -0.180691         2.057387
 H         1.395849        -0.897643         1.968907
