19
Iteration:  1496charge 0 multiplicity 1
 C         3.510783        -2.628475         0.027559
 C         3.175300        -1.116256         0.170978
 O         2.274436        -0.779845        -0.841548
 C         1.546568         0.170541         0.075211
 C         0.068191        -0.089382         0.080031
 C         2.094635         1.492194        -0.151051
 O         3.584348         1.425977         0.054382
 C         3.785318         0.164217         0.782924
 C         2.545630        -0.470974         1.382274
 H         3.445710        -2.877634        -1.018587
 H         4.574647        -2.755967         0.354552
 H         2.940735        -3.336560         0.579669
 H        -0.456572        -0.004616         1.069564
 H        -0.548965         0.516036        -0.643512
 H        -0.018618        -1.119178        -0.332672
 H         1.961919         2.035965        -1.118063
 H         1.786749         2.085485         0.724614
 H         4.721437         0.205166         1.339805
 H         2.188107        -0.746559         2.324908
