19
Iteration:  2055charge 0 multiplicity 1
 C         3.534774        -2.627422        -0.161721
 C         3.240764        -1.105452         0.024175
 O         2.440786        -0.587859        -0.967801
 C         1.655742         0.159465         0.014521
 C         0.081387        -0.040235        -0.400688
 C         2.255084         1.593288         0.149773
 O         3.488923         1.393950         0.734737
 C         3.620695        -0.007528         1.013664
 C         2.287631        -0.641410         1.112939
 H         2.744646        -3.427463         0.240275
 H         3.607385        -2.948000        -1.220449
 H         4.581979        -2.794088         0.305513
 H        -0.308798        -0.939835         0.076169
 H        -0.404280         0.851416         0.060711
 H        -0.088479        -0.050734        -1.469824
 H         2.170570         2.189769        -0.814525
 H         1.711341         2.250431         0.882830
 H         4.296917        -0.326754         1.739973
 H         1.758010        -1.063828         2.015671
