19
Iteration:  1588charge 0 multiplicity 1
 C         3.960729        -2.514637        -0.082332
 C         3.153977        -1.162912         0.152272
 O         2.128296        -0.861794        -0.851979
 C         1.519548         0.064726         0.122591
 C        -0.007049         0.265642         0.030596
 C         2.188850         1.450481        -0.150833
 O         3.513855         1.332483         0.283120
 C         3.715688         0.100609         0.831389
 C         2.354998        -0.587726         1.284342
 H         3.793700        -3.464201         0.435354
 H         3.772245        -2.617903        -1.105122
 H         5.050363        -2.352257        -0.243759
 H        -0.002544         1.060911        -0.703659
 H        -0.567168        -0.610060        -0.334814
 H        -0.501551         0.674353         0.918504
 H         2.257167         1.740973        -1.193175
 H         1.607323         2.211563         0.474961
 H         4.619780        -0.001829         1.383245
 H         2.094195        -0.978436         2.327197
