19
Iteration:  4414
 C         3.612451        -2.541754         0.031456
 C         3.044920        -1.186613         0.265726
 O         2.480697        -0.571827        -0.907262
 C         1.575311         0.193031        -0.046191
 C         0.124738         0.052636        -0.593351
 C         2.280641         1.609659        -0.021872
 O         3.668453         1.220135         0.570665
 C         3.608026        -0.078388         1.110446
 C         2.076461        -0.558111         1.253892
 H         2.854623        -3.269064        -0.326222
 H         4.161479        -2.518292        -0.874620
 H         4.215671        -2.875257         0.815885
 H        -0.620197         0.632538        -0.128417
 H         0.121654         0.265810        -1.719342
 H        -0.137624        -0.990867        -0.634271
 H         2.594637         1.806595        -1.054688
 H         1.954739         2.509120         0.453640
 H         4.262085        -0.284022         1.945397
 H         1.391639        -0.934742         2.033837
