19
Iteration:  4937charge 0 multiplicity 1
 C         3.936508        -2.317986        -0.382501
 C         3.033005        -1.267688         0.158025
 O         2.428672        -0.626876        -0.972668
 C         1.588774         0.146269        -0.097832
 C         0.163992         0.238131        -0.458673
 C         2.348085         1.457057         0.174705
 O         3.567554         1.192687         0.845721
 C         3.347235        -0.114212         1.235290
 C         2.058283        -0.662633         1.111140
 H         3.364154        -2.788125        -1.293819
 H         4.892143        -1.849540        -0.628985
 H         4.201136        -3.186131         0.247593
 H        -0.536050        -0.279824         0.223771
 H        -0.087436         1.423140        -0.697816
 H        -0.047738        -0.244757        -1.404086
 H         2.621571         1.865190        -0.818028
 H         1.677102         2.186099         0.627164
 H         3.960860        -0.292472         2.146039
 H         1.353232        -1.044972         1.879119
