19
Iteration:  1922
 C         3.865056        -2.472410        -0.156721
 C         3.124955        -1.179538         0.148657
 O         2.287865        -0.718587        -0.936154
 C         1.521711         0.118784         0.009489
 C         0.030021         0.149828        -0.232796
 C         2.259246         1.526940        -0.027892
 O         3.585634         1.324120         0.592170
 C         3.663150        -0.009063         0.993648
 C         2.178766        -0.662802         1.188614
 H         4.935030        -2.366892        -0.493919
 H         3.739241        -3.239307         0.603946
 H         3.339460        -2.651908        -1.086710
 H        -0.402679        -0.559663        -0.925961
 H        -0.469886         0.004826         0.718801
 H        -0.316782         1.167967        -0.480678
 H         2.408265         1.650088        -1.114554
 H         1.838014         2.382042         0.448386
 H         4.512693        -0.216331         1.739406
 H         1.773425        -0.926930         2.138532
