19
Iteration:   819charge 0 multiplicity 1
 C         3.993720        -2.341767        -0.097017
 C         3.064728        -1.226952         0.254655
 O         2.166833        -0.847053        -0.803464
 C         1.500589         0.137206         0.104601
 C        -0.033786         0.218605         0.331968
 C         2.138719         1.435780        -0.313936
 O         3.648004         1.141711        -0.042076
 C         3.704540         0.021632         0.814444
 C         2.277535        -0.447659         1.353901
 H         4.641081        -2.530164         0.750153
 H         3.470700        -3.278956        -0.360286
 H         4.628203        -2.016475        -0.925385
 H        -0.559810         0.706143        -0.511211
 H        -0.492350        -0.755183         0.340068
 H        -0.098425         0.736498         1.339693
 H         2.151727         1.599519        -1.429425
 H         1.771422         2.373028         0.243978
 H         4.617470         0.073197         1.349497
 H         2.120535        -0.603055         2.448293
