19
Iteration:  4833
 C         3.590304        -2.580156        -0.265447
 C         3.168560        -1.160061         0.142375
 O         2.591866        -0.366788        -0.947193
 C         1.562066         0.228916        -0.059796
 C         0.157294        -0.012555        -0.564774
 C         2.247361         1.603730         0.200890
 O         3.521660         1.190656         0.758329
 C         3.534713        -0.091971         1.168413
 C         2.137282        -0.656097         1.175100
 H         2.753992        -3.242615        -0.239934
 H         4.013188        -2.806931        -1.299905
 H         4.322513        -2.934360         0.545965
 H         0.281930        -0.707968        -1.469446
 H        -0.336294        -0.644497         0.114984
 H        -0.541697         0.845079        -0.959405
 H         2.303730         2.068645        -0.790408
 H         1.756850         2.244762         0.911008
 H         4.399511        -0.211265         1.847586
 H         1.516369        -1.165224         1.928827
