19
Iteration:  2426
 C         3.512051        -2.527270        -0.252735
 C         3.220467        -1.171855         0.055455
 O         2.551102        -0.437094        -0.950798
 C         1.572880         0.200179         0.013483
 C         0.162400        -0.037853        -0.616395
 C         2.221442         1.547969         0.277260
 O         3.513884         1.327007         0.770403
 C         3.591382        -0.113968         1.144023
 C         2.180605        -0.722434         1.145575
 H         2.754400        -3.112091        -0.745393
 H         4.254464        -2.479977        -1.037153
 H         4.054056        -2.935912         0.592045
 H        -0.434716         0.859268        -0.388579
 H         0.344246        -0.086184        -1.683624
 H        -0.284391        -0.881310        -0.139767
 H         2.087222         2.116006        -0.642434
 H         1.730786         2.152504         1.052029
 H         4.374193        -0.250669         1.864155
 H         1.601898        -1.113093         1.942181
