19
Iteration:  2636
 C         3.710385        -2.593475        -0.091711
 C         3.144516        -1.151702         0.026413
 O         2.397355        -0.573780        -1.091919
 C         1.600335         0.100194        -0.061087
 C         0.167569         0.160663        -0.602251
 C         2.209810         1.553094         0.258200
 O         3.493796         1.345469         0.855789
 C         3.569032        -0.029880         1.083221
 C         2.238125        -0.712167         1.153056
 H         3.060276        -3.151672        -0.828245
 H         4.797882        -2.759178        -0.509843
 H         3.695782        -3.061688         0.945131
 H         0.077058         0.160809        -1.675894
 H        -0.269053        -0.740758        -0.247131
 H        -0.445122         0.958613        -0.083110
 H         2.375099         2.290963        -0.622200
 H         1.708545         2.180903         1.042701
 H         4.436057        -0.419883         1.714876
 H         1.677435        -1.123698         1.971687
