19
Iteration:  3829
 C         3.848047        -2.569827         0.131102
 C         3.136477        -1.237747         0.240784
 O         2.450398        -0.694060        -0.917448
 C         1.602006         0.177709        -0.175201
 C         0.051674         0.291837        -0.413852
 C         2.369123         1.577897        -0.069400
 O         3.625826         1.158013         0.548585
 C         3.466852        -0.065275         1.047328
 C         1.962172        -0.526515         1.127002
 H         3.109967        -3.359356         0.297427
 H         4.178364        -2.953316        -0.960732
 H         4.596135        -2.606592         0.901089
 H        -0.425962        -0.298411         0.313059
 H        -0.330422         1.350606        -0.166794
 H        -0.159377        -0.034691        -1.463196
 H         2.439604         2.014712        -1.119219
 H         1.700323         2.232902         0.613243
 H         4.110847        -0.281091         1.893803
 H         1.380723        -0.674809         2.053402
