19
Iteration:  1111charge 0 multiplicity 1
 C         3.470116        -2.691841         0.076493
 C         3.275448        -1.146939         0.250280
 O         2.265608        -0.767059        -0.752335
 C         1.597786         0.110620         0.212081
 C         0.045865        -0.137789         0.121716
 C         2.040944         1.539857        -0.165417
 O         3.584630         1.384101        -0.112379
 C         3.779076         0.252606         0.645436
 C         2.587943        -0.374347         1.326670
 H         4.116181        -3.172038         0.859421
 H         2.439087        -3.073716         0.145378
 H         3.834518        -2.918507        -0.967283
 H        -0.211802        -0.387104        -0.920262
 H        -0.134611        -0.920450         0.833519
 H        -0.587815         0.763428         0.327747
 H         1.700216         1.874996        -1.152195
 H         1.770084         2.274272         0.599073
 H         4.713155         0.214178         1.300748
 H         2.248716        -0.552247         2.301430
