19
Iteration:  4565charge 0 multiplicity 1
 C         3.807898        -2.424963        -0.091547
 C         3.046695        -1.262371         0.260315
 O         2.416287        -0.649590        -0.911128
 C         1.602386         0.153427        -0.064273
 C         0.169531         0.322399        -0.567973
 C         2.324096         1.479267        -0.038522
 O         3.557743         1.209391         0.659291
 C         3.513712        -0.099965         1.149404
 C         2.043544        -0.651853         1.191989
 H         3.212523        -3.116431        -0.767495
 H         4.700481        -1.963981        -0.408775
 H         4.119906        -3.115911         0.655711
 H        -0.081204        -0.426329        -1.281127
 H        -0.620446         0.088910         0.220445
 H        -0.024801         1.339696        -0.850321
 H         2.531745         1.886962        -1.016136
 H         1.816185         2.242347         0.561408
 H         4.248509        -0.323582         1.978115
 H         1.467318        -1.168586         1.989018
