19
Iteration:  1728
 C         3.829690        -2.499511        -0.151905
 C         3.108687        -1.215026         0.144259
 O         2.260198        -0.741213        -0.912091
 C         1.587644         0.115896         0.041993
 C         0.075834         0.124581        -0.040878
 C         2.184204         1.545899        -0.053098
 O         3.527060         1.313655         0.400459
 C         3.676301         0.045463         0.883782
 C         2.315065        -0.583117         1.268805
 H         3.848114        -2.652144        -1.257597
 H         4.762400        -2.492848         0.341992
 H         3.195164        -3.240432         0.341926
 H        -0.163166        -0.770398        -0.643732
 H        -0.571443         0.190621         0.863890
 H        -0.216087         0.931155        -0.770453
 H         2.187768         1.888035        -1.086998
 H         1.693144         2.256292         0.575934
 H         4.441259        -0.026333         1.627530
 H         1.945661        -1.058914         2.190676
