19
Iteration:  1844
 C         3.619742        -2.546874        -0.086431
 C         3.201118        -1.192199         0.091779
 O         2.318673        -0.576627        -0.969929
 C         1.604729         0.014607         0.070060
 C         0.157872         0.051847        -0.243611
 C         2.175636         1.541711         0.247889
 O         3.515278         1.363094         0.381518
 C         3.696042         0.027630         0.915187
 C         2.323942        -0.588276         1.182421
 H         3.550585        -2.990527         0.901677
 H         2.915503        -2.983062        -0.870670
 H         4.558680        -2.668072        -0.604829
 H        -0.410970        -0.738788         0.276209
 H        -0.384544         0.970359        -0.174885
 H         0.012807        -0.290833        -1.266919
 H         1.837709         2.095639        -0.647542
 H         1.847943         2.079200         1.093320
 H         4.484344         0.012174         1.608481
 H         1.949825        -1.168412         2.082100
