19
Iteration:  3474
 C         3.742479        -2.562503        -0.047091
 C         3.033609        -1.264011         0.267122
 O         2.511774        -0.627899        -0.962198
 C         1.621181         0.168671        -0.065143
 C         0.071345         0.205953        -0.486474
 C         2.397114         1.556398        -0.109717
 O         3.597366         1.255454         0.668129
 C         3.520734        -0.041851         1.193675
 C         2.019600        -0.599641         1.131960
 H         3.052790        -3.465869        -0.078188
 H         4.139159        -2.383390        -1.022645
 H         4.480958        -2.608858         0.739841
 H        -0.238674         1.069425        -1.048717
 H        -0.216942        -0.721552        -1.077157
 H        -0.580651         0.195641         0.391309
 H         2.679500         1.792623        -1.117544
 H         1.748791         2.240128         0.465835
 H         4.127948        -0.198779         2.069719
 H         1.245764        -0.921094         1.893273
