19
Iteration:  4796charge 0 multiplicity 1
 C         3.693417        -2.525091        -0.293038
 C         3.128350        -1.159385         0.157931
 O         2.477945        -0.597640        -0.979704
 C         1.623469         0.192814        -0.067701
 C         0.154202         0.116234        -0.556739
 C         2.271656         1.495851         0.128534
 O         3.534937         1.263245         0.809055
 C         3.564103        -0.040618         1.181495
 C         2.063269        -0.641982         1.202212
 H         2.778940        -3.121178        -0.581073
 H         4.390932        -2.397829        -1.077434
 H         4.255359        -2.984246         0.488388
 H         0.207661         0.147969        -1.640756
 H        -0.230527        -0.813717        -0.044687
 H        -0.553713         0.820657        -0.238010
 H         2.535553         2.183685        -0.696319
 H         1.682467         2.197193         0.789821
 H         4.392639        -0.209359         1.890656
 H         1.406155        -1.128673         1.934651
