19
Iteration:  3978
 C         3.723077        -2.479291         0.103104
 C         3.093843        -1.210698         0.230579
 O         2.309980        -0.755851        -0.966494
 C         1.610537         0.246380        -0.113255
 C         0.188004         0.199541        -0.494294
 C         2.411367         1.511807        -0.089356
 O         3.585661         1.184431         0.539100
 C         3.464167        -0.051645         1.172192
 C         2.130896        -0.551257         1.186638
 H         3.044661        -3.298277        -0.220245
 H         4.630244        -2.249748        -0.413157
 H         4.088743        -2.906207         1.091676
 H        -0.194594        -0.776138        -0.767194
 H        -0.379003         0.690552         0.359395
 H         0.112098         0.915934        -1.385169
 H         2.526856         1.945945        -1.079367
 H         1.831779         2.353976         0.446450
 H         4.143568        -0.306532         1.947800
 H         1.451383        -0.617750         2.025854
