19
Iteration:  1134charge 0 multiplicity 1
 C         3.573616        -2.556868         0.157237
 C         3.168735        -1.118466         0.151852
 O         2.086667        -0.813603        -0.827961
 C         1.517381         0.068351         0.215859
 C         0.097102        -0.100314         0.074307
 C         2.144810         1.479630        -0.160407
 O         3.532586         1.378039        -0.007638
 C         3.833749         0.168023         0.666647
 C         2.663743        -0.362811         1.336008
 H         4.536815        -2.613089         0.669981
 H         2.755410        -3.062553         0.770201
 H         3.623827        -2.943990        -0.903909
 H        -0.120987        -0.332669        -0.972823
 H        -0.279897        -0.772402         0.810410
 H        -0.382422         0.907745         0.057547
 H         1.855403         1.771709        -1.204982
 H         1.874794         2.310056         0.512684
 H         4.820799         0.131030         1.188967
 H         2.463953        -0.760385         2.244243
