19
Iteration:  2177
 C         3.774262        -2.519597        -0.297515
 C         3.146430        -1.146979         0.006412
 O         2.366119        -0.535448        -1.047218
 C         1.560898         0.130014        -0.021526
 C         0.138482         0.150131        -0.454449
 C         2.214330         1.556651         0.115740
 O         3.468960         1.282162         0.940527
 C         3.633761        -0.118730         1.193348
 C         2.202937        -0.752619         1.110037
 H         4.841738        -2.341336        -0.591870
 H         3.725173        -3.138585         0.652917
 H         3.324959        -3.002568        -1.225959
 H        -0.140542         1.219233        -0.477295
 H         0.099034        -0.352917        -1.427642
 H        -0.492459        -0.394027         0.238284
 H         2.550789         1.979913        -0.899239
 H         1.757455         2.439511         0.714105
 H         4.277721        -0.040228         2.149887
 H         1.686821        -1.306195         1.876129
