19
Iteration:  4557
 C         3.855909        -2.445323        -0.101312
 C         3.096493        -1.212036         0.302956
 O         2.386228        -0.703688        -0.894305
 C         1.570710         0.199368        -0.139124
 C         0.142019         0.316990        -0.562612
 C         2.365899         1.492648         0.000750
 O         3.601570         1.249035         0.634305
 C         3.455876        -0.169176         1.186222
 C         1.997146        -0.651662         1.218388
 H         3.262324        -2.750329        -1.032974
 H         4.737670        -2.169186        -0.701380
 H         4.177401        -3.160330         0.618750
 H         0.089496        -0.414212        -1.375287
 H        -0.523126        -0.072577         0.254168
 H        -0.218223         1.315539        -0.748534
 H         2.591111         1.818377        -1.062905
 H         1.693061         2.311099         0.442006
 H         4.210910        -0.492946         1.927220
 H         1.414789        -0.890061         2.104396
