19
Iteration:   152
 C         3.494179        -2.775923         0.170536
 C         3.155058        -1.204053         0.072725
 O         2.352974        -0.553181        -0.984990
 C         1.586515         0.202738         0.048160
 C         0.119997        -0.251232         0.207944
 C         2.123500         1.630016        -0.006678
 O         3.481565         1.307913         0.045948
 C         3.742972         0.141571         0.742975
 C         2.491857        -0.338120         1.178399
 H         4.075638        -2.929567         1.091319
 H         2.604879        -3.383394         0.246628
 H         4.177354        -3.226348        -0.636796
 H        -0.474623         0.004404        -0.717015
 H         0.204863        -1.281674         0.578720
 H        -0.183436         0.393262         1.054513
 H         2.115692         2.287695        -0.901717
 H         1.673584         2.219682         0.848093
 H         4.684113         0.286828         1.398374
 H         2.249076        -0.699985         2.179196
