19
Iteration:  3593charge 0 multiplicity 1
 C         3.724441        -2.493933        -0.028179
 C         3.101406        -1.140404         0.228899
 O         2.357756        -0.712600        -1.023913
 C         1.515776         0.242910        -0.080343
 C         0.096961         0.123387        -0.459842
 C         2.423496         1.586526        -0.035376
 O         3.661664         1.210460         0.674837
 C         3.487375        -0.078169         1.214417
 C         2.096549        -0.558542         1.125498
 H         3.239668        -3.283028        -0.753237
 H         4.601713        -2.302361        -0.643650
 H         4.034691        -2.936894         0.917373
 H         0.118870        -0.179995        -1.492729
 H        -0.485691        -0.702251         0.008355
 H        -0.455484         1.041514        -0.470867
 H         2.693282         1.775404        -1.086622
 H         2.086477         2.446328         0.577210
 H         4.076116        -0.454663         2.077757
 H         1.477195        -0.953852         1.993135
