19
Iteration:  4477
 C         3.686637        -2.650615         0.164292
 C         3.197690        -1.207146         0.125743
 O         2.529949        -0.563572        -1.053838
 C         1.554842         0.172521        -0.175575
 C         0.108247         0.286562        -0.495192
 C         2.200015         1.506394         0.083660
 O         3.585491         1.237980         0.634012
 C         3.530158        -0.062667         1.073309
 C         2.152737        -0.616927         1.107939
 H         2.714289        -3.298985         0.155321
 H         4.412717        -2.946027        -0.573853
 H         4.052363        -2.852827         1.200853
 H        -0.365769         1.203333        -0.821699
 H         0.057661        -0.600210        -1.134943
 H        -0.423743         0.044335         0.424781
 H         2.372419         2.125343        -0.808253
 H         1.582635         2.009558         0.916291
 H         4.193410        -0.262314         1.895490
 H         1.453522        -0.751853         1.959769
