19
Iteration:   122charge 0 multiplicity 1
 C         3.610923        -2.459785         0.172579
 C         3.134969        -1.100077        -0.000592
 O         2.209180        -0.715600        -0.941601
 C         1.547959         0.108970         0.104765
 C         0.106232        -0.157388         0.151973
 C         2.242010         1.511422        -0.009512
 O         3.645158         1.352757         0.032610
 C         3.687544         0.061039         0.715378
 C         2.397014        -0.431070         1.224326
 H         4.012599        -2.508310         1.233006
 H         2.744961        -3.143452         0.245568
 H         4.359390        -2.756184        -0.484975
 H        -0.516282         0.592084        -0.228483
 H        -0.148879        -1.124327        -0.300669
 H        -0.228611        -0.094092         1.187652
 H         1.966801         2.037663        -0.911493
 H         1.778864         2.033217         0.835218
 H         4.495984        -0.052840         1.506744
 H         2.198210        -0.973137         2.238846
