19
Iteration:  1768
 C         3.920779        -2.303245        -0.189450
 C         3.056648        -1.202505         0.143722
 O         2.250297        -0.677298        -0.974991
 C         1.513922         0.176493         0.005202
 C         0.025601         0.075380         0.011459
 C         2.327164         1.457252        -0.102982
 O         3.611260         1.162829         0.427601
 C         3.551749        -0.052527         1.017832
 C         2.199981        -0.539134         1.208496
 H         3.538661        -3.140311        -0.819788
 H         4.922336        -1.901162        -0.610038
 H         4.259266        -2.856289         0.696089
 H        -0.332864        -0.724302         0.674646
 H        -0.244678         0.934544         0.586018
 H        -0.534259         0.121556        -0.917356
 H         2.649684         1.910318        -1.091981
 H         1.735516         2.336359         0.444155
 H         4.386239        -0.110188         1.681778
 H         1.727273        -1.089758         2.091504
