19
Iteration:  3653
 C         3.751528        -2.540291         0.053273
 C         3.181530        -1.204653         0.173337
 O         2.446146        -0.745543        -0.915560
 C         1.551076         0.152681        -0.145463
 C         0.101888         0.362978        -0.529612
 C         2.292142         1.497473         0.074890
 O         3.615201         1.279781         0.555067
 C         3.478592        -0.042892         1.135158
 C         2.043908        -0.699796         1.118427
 H         2.985041        -3.161325         0.260291
 H         4.371711        -2.618014        -0.895010
 H         4.503098        -2.637279         0.863917
 H         0.080631         1.237166        -1.214476
 H        -0.271333        -0.611194        -0.901583
 H        -0.372405         0.629013         0.451814
 H         2.376463         2.083981        -0.872882
 H         1.829983         2.181089         0.860833
 H         4.264888        -0.342938         1.807900
 H         1.493514        -1.025513         1.960795
