19
Iteration:  2253charge 0 multiplicity 1
 C         3.807365        -2.440516        -0.255349
 C         3.053294        -1.205621         0.046718
 O         2.463693        -0.429612        -0.992187
 C         1.587283         0.219617        -0.025251
 C         0.159163         0.066014        -0.579933
 C         2.190741         1.585705         0.421607
 O         3.547676         1.238163         0.734772
 C         3.532713        -0.212459         1.129723
 C         2.147284        -0.712744         1.111028
 H         3.675141        -2.570860        -1.310024
 H         4.856391        -2.507750         0.049456
 H         3.304038        -3.325274         0.162535
 H         0.385605         0.050990        -1.681005
 H        -0.385942        -0.862662        -0.343140
 H        -0.425132         0.975031        -0.380011
 H         2.141793         2.208837        -0.516105
 H         1.771857         1.999971         1.330956
 H         4.236043        -0.662619         1.904978
 H         1.575434        -1.237846         1.842719
