19
Iteration:  2105
 C         3.949878        -2.360647        -0.199190
 C         3.088091        -1.236924         0.197599
 O         2.458414        -0.549214        -0.986300
 C         1.528690         0.181580         0.019266
 C         0.024356         0.234947        -0.367133
 C         2.220085         1.541918         0.214020
 O         3.618650         1.139781         0.544489
 C         3.500430        -0.139279         1.057756
 C         2.049317        -0.759213         1.062365
 H         4.304170        -2.698140         0.762406
 H         3.339079        -3.231377        -0.470888
 H         4.817524        -2.098610        -0.740361
 H        -0.537509         0.135540         0.560824
 H        -0.135033         1.181260        -0.889514
 H        -0.231892        -0.613460        -1.070472
 H         2.339330         2.039162        -0.731602
 H         1.786739         2.274061         0.885204
 H         4.062009        -0.397564         2.011318
 H         1.742148        -0.997936         2.048162
