19
Iteration:  3654
 C         3.741614        -2.537388         0.063475
 C         3.181369        -1.212181         0.160216
 O         2.441473        -0.741413        -0.916188
 C         1.565278         0.141879        -0.143853
 C         0.105287         0.364290        -0.536919
 C         2.277975         1.499600         0.078263
 O         3.618511         1.282521         0.557504
 C         3.485220        -0.041019         1.138863
 C         2.043700        -0.696258         1.117569
 H         2.952131        -3.205064         0.246176
 H         4.366735        -2.621077        -0.891086
 H         4.491410        -2.619370         0.842861
 H         0.083610         1.255727        -1.176642
 H        -0.279384        -0.642401        -0.945534
 H        -0.360417         0.609573         0.469600
 H         2.395140         2.101519        -0.902110
 H         1.809373         2.150722         0.873010
 H         4.309412        -0.292939         1.805006
 H         1.517848        -1.032413         2.000127
