19
Iteration:  3530charge 0 multiplicity 1
 C         3.575195        -2.643776         0.106551
 C         3.152291        -1.182322         0.154291
 O         2.481416        -0.520237        -1.012452
 C         1.645022         0.153725        -0.077018
 C         0.099892         0.166724        -0.568891
 C         2.254567         1.519170         0.165504
 O         3.641016         1.269991         0.499837
 C         3.549073        -0.012678         1.144394
 C         2.112528        -0.616240         1.126319
 H         2.836119        -3.320299        -0.321531
 H         4.595113        -2.801425        -0.330316
 H         3.718835        -2.939934         1.195769
 H         0.105540         0.344210        -1.672715
 H        -0.317184        -0.825717        -0.420926
 H        -0.512028         0.843615         0.021525
 H         2.204968         2.233105        -0.596923
 H         1.570161         1.957939         0.946733
 H         4.405128        -0.255135         1.827070
 H         1.829425        -1.243430         2.048281
