19
Iteration:  1984
 C         3.919045        -2.461246        -0.122401
 C         2.992174        -1.263447         0.082630
 O         2.346726        -0.587879        -1.006667
 C         1.497267         0.181841        -0.028457
 C        -0.025271         0.116044        -0.284473
 C         2.315436         1.502707         0.152032
 O         3.627214         1.249698         0.442398
 C         3.628934        -0.083881         1.077131
 C         2.169820        -0.598174         1.210954
 H         4.134938        -2.800568        -1.097315
 H         4.939288        -2.363706         0.310451
 H         3.536488        -3.257907         0.502988
 H        -0.237148        -0.612373        -1.124321
 H        -0.515607        -0.158055         0.669227
 H        -0.342742         1.149581        -0.613387
 H         2.248281         2.253176        -0.642886
 H         1.811857         2.086728         1.042660
 H         4.261537         0.022716         1.966538
 H         1.659373        -1.040952         2.070796
