19
Iteration:  3457
 C         3.755650        -2.504342        -0.015131
 C         3.202070        -1.114230         0.241314
 O         2.538821        -0.740280        -0.961640
 C         1.528368         0.193862        -0.153310
 C        -0.018303         0.319309        -0.487941
 C         2.355534         1.423314        -0.077229
 O         3.564159         1.252645         0.709259
 C         3.439735        -0.066330         1.194160
 C         2.100744        -0.618403         1.164772
 H         2.927601        -3.165354        -0.146306
 H         4.178300        -2.596076        -1.081628
 H         4.528643        -3.058097         0.583849
 H        -0.121724         1.211059        -1.212066
 H        -0.381425        -0.534143        -0.988747
 H        -0.476687         0.409400         0.521245
 H         2.634082         1.642156        -1.164117
 H         1.980052         2.423942         0.130835
 H         4.056813        -0.420259         2.072136
 H         1.714387        -1.113586         2.049673
