19
Iteration:  1729
 C         3.836910        -2.500555        -0.157506
 C         3.106758        -1.218001         0.145362
 O         2.262894        -0.743008        -0.918816
 C         1.579633         0.119753         0.046831
 C         0.073994         0.123733        -0.040818
 C         2.195392         1.554807        -0.051220
 O         3.528801         1.311582         0.399457
 C         3.664594         0.044059         0.883320
 C         2.307319        -0.582725         1.275697
 H         3.853938        -2.664372        -1.253681
 H         4.783979        -2.489975         0.316447
 H         3.215162        -3.250052         0.365271
 H        -0.167900        -0.787413        -0.625910
 H        -0.559141         0.203600         0.894733
 H        -0.222281         0.923886        -0.774024
 H         2.219539         1.860717        -1.088442
 H         1.674433         2.255051         0.554784
 H         4.459087         0.004749         1.636712
 H         1.948383        -1.051783         2.176156
