19
Iteration:  2060
 C         3.559658        -2.596016        -0.122080
 C         3.185999        -1.158037        -0.015072
 O         2.430360        -0.605244        -0.959522
 C         1.644151         0.139385        -0.002865
 C         0.113635        -0.010257        -0.392667
 C         2.239506         1.610181         0.200016
 O         3.511022         1.386255         0.720399
 C         3.596972         0.023365         1.029179
 C         2.296886        -0.664945         1.088839
 H         3.046975        -3.429867         0.272390
 H         3.450455        -2.799113        -1.226601
 H         4.608390        -2.712254         0.141866
 H        -0.343806        -0.854218         0.157893
 H        -0.337838         0.971646        -0.176950
 H        -0.041589        -0.132484        -1.487750
 H         2.165552         2.046015        -0.783840
 H         1.704810         2.256411         0.889534
 H         4.338344        -0.348718         1.804467
 H         1.760642        -1.012949         1.931989
