19
Iteration:   824charge 0 multiplicity 1
 C         3.988589        -2.310263        -0.115972
 C         3.063009        -1.209074         0.255450
 O         2.139349        -0.834629        -0.763716
 C         1.513872         0.150038         0.073431
 C        -0.001781         0.202057         0.329206
 C         2.171528         1.430982        -0.310970
 O         3.622442         1.105932        -0.043803
 C         3.672665        -0.016236         0.806861
 C         2.298483        -0.418563         1.324693
 H         4.591486        -2.591986         0.782431
 H         3.538407        -3.312055        -0.340950
 H         4.740515        -1.869735        -0.812683
 H        -0.562157         0.857410        -0.365283
 H        -0.360434        -0.856627         0.428036
 H        -0.179954         0.612851         1.303760
 H         2.185013         1.527398        -1.379971
 H         1.812860         2.309020         0.215259
 H         4.580003         0.193487         1.485631
 H         2.028064        -0.576962         2.349401
