19
Iteration:  2515charge 0 multiplicity 1
 C         4.013191        -2.439250        -0.194623
 C         3.146906        -1.220329         0.081433
 O         2.431316        -0.654700        -0.991850
 C         1.524698         0.105730         0.053219
 C         0.098292         0.460133        -0.520412
 C         2.225456         1.517094         0.099914
 O         3.486552         1.243311         0.811467
 C         3.433370        -0.133636         1.094791
 C         2.100314        -0.855458         1.136867
 H         3.485699        -3.182468        -0.761131
 H         4.886004        -2.090169        -0.808121
 H         4.483598        -2.756382         0.742940
 H        -0.661875         0.050708         0.107165
 H         0.026702         1.507717        -0.494817
 H        -0.244254         0.100300        -1.515849
 H         2.202232         1.971248        -0.945491
 H         1.634474         2.128107         0.836824
 H         4.256356        -0.337078         1.755546
 H         1.783254        -1.433176         2.080611
