19
Iteration:  1252charge 0 multiplicity 1
 C         3.715004        -2.530950         0.120790
 C         3.133179        -1.138952         0.226159
 O         2.037555        -1.024270        -0.764383
 C         1.591590         0.085414         0.203875
 C         0.028719         0.037794         0.099439
 C         2.144464         1.474574        -0.245495
 O         3.590686         1.425868        -0.027733
 C         3.800215         0.191191         0.691268
 C         2.547957        -0.361231         1.315551
 H         4.054647        -2.937723         1.077336
 H         3.020453        -3.147575        -0.445497
 H         4.625167        -2.400393        -0.518536
 H        -0.343221         0.994658        -0.318663
 H        -0.151268        -0.823078        -0.517062
 H        -0.659318        -0.032321         1.018740
 H         1.849236         1.679984        -1.286016
 H         1.735528         2.338588         0.401590
 H         4.783372        -0.132209         1.112891
 H         2.543309        -0.468101         2.313805
