19
Iteration:  2037charge 0 multiplicity 1
 C         3.549709        -2.581403        -0.133092
 C         3.157792        -1.189356         0.057269
 O         2.471472        -0.488188        -1.042535
 C         1.567784         0.156495        -0.058375
 C         0.146803        -0.051532        -0.282634
 C         2.152285         1.548700         0.104912
 O         3.560743         1.333651         0.691081
 C         3.653048         0.016230         1.103156
 C         2.299999        -0.604030         1.171612
 H         2.635738        -3.148356        -0.422251
 H         3.948745        -2.637993        -1.184453
 H         4.019698        -3.210183         0.651341
 H         0.065083        -1.160703        -0.419763
 H        -0.614291         0.452654         0.326242
 H        -0.038697         0.375557        -1.280391
 H         2.356000         1.854483        -0.912433
 H         1.550123         2.283703         0.629455
 H         4.485938        -0.171115         1.788592
 H         1.805261        -1.097839         2.014680
