19
Iteration:  2380charge 0 multiplicity 1
 C         3.715521        -2.557155        -0.248434
 C         3.151513        -1.201933         0.122301
 O         2.596873        -0.480199        -0.992456
 C         1.611891         0.136922        -0.019880
 C         0.135976         0.166390        -0.529734
 C         2.166183         1.526182         0.331024
 O         3.499054         1.267461         0.722008
 C         3.539676        -0.054695         1.117237
 C         2.115540        -0.711493         1.068238
 H         2.832654        -3.277149        -0.153986
 H         3.823158        -2.672099        -1.307700
 H         4.551699        -2.958801         0.327462
 H        -0.099563         1.151948        -0.939265
 H         0.211109        -0.511789        -1.380858
 H        -0.591943        -0.117805         0.172854
 H         2.238706         2.294138        -0.399624
 H         1.481801         1.949043         1.097716
 H         4.188821        -0.330012         2.020818
 H         1.651603        -1.172026         1.922669
