19
Iteration:  3852
 C         3.640258        -2.486716         0.125233
 C         2.969196        -1.225084         0.202756
 O         2.472760        -0.685324        -0.978696
 C         1.554147         0.172842        -0.044741
 C         0.160378         0.151551        -0.485840
 C         2.405913         1.541060        -0.089665
 O         3.675815         1.190371         0.493621
 C         3.494749        -0.008349         1.207063
 C         2.101342        -0.524702         1.218208
 H         3.062222        -3.426879         0.043590
 H         3.787483        -2.450197        -1.054804
 H         4.575764        -2.526329         0.628712
 H        -0.289288        -0.768237        -0.153372
 H        -0.406134         0.981915         0.091349
 H         0.188435         0.237697        -1.595168
 H         2.378273         1.753882        -1.209838
 H         1.741960         2.284092         0.461615
 H         4.142175        -0.059543         2.030632
 H         1.585986        -0.961321         2.041585
