19
Iteration:  4866charge 0 multiplicity 1
 C         3.713599        -2.496068        -0.137572
 C         3.118409        -1.177891         0.032254
 O         2.572016        -0.512710        -1.107503
 C         1.641912         0.161439        -0.117780
 C         0.185572         0.158259        -0.459591
 C         2.232575         1.561517         0.360269
 O         3.503456         1.216234         0.740781
 C         3.430960        -0.080008         1.124453
 C         2.108520        -0.737811         1.051597
 H         2.892141        -3.174007        -0.131394
 H         4.570340        -2.669257        -0.871703
 H         4.219584        -2.687735         0.873502
 H        -0.049003        -0.844531        -0.945496
 H        -0.321033         0.373908         0.416898
 H        -0.232358         0.910463        -1.220971
 H         2.205086         2.387120        -0.369789
 H         1.692038         1.944499         1.225981
 H         4.143930        -0.354104         1.914090
 H         1.548650        -1.217194         1.843687
