19
Iteration:  1023charge 0 multiplicity 1
 C         3.964120        -2.484540         0.095143
 C         3.160305        -1.242914         0.144493
 O         2.033477        -0.945825        -0.817956
 C         1.543015         0.035064         0.126365
 C         0.065287         0.320234         0.231101
 C         2.174320         1.359574        -0.270615
 O         3.483094         1.391424         0.061037
 C         3.677319         0.085950         0.690487
 C         2.487558        -0.474530         1.300792
 H         4.634463        -2.559124         1.038351
 H         3.385891        -3.371197        -0.047728
 H         4.516632        -2.537718        -0.887908
 H        -0.216931         1.234723        -0.308986
 H        -0.595204        -0.464437        -0.150846
 H        -0.161789         0.511966         1.308933
 H         2.091265         1.548151        -1.355771
 H         1.710486         2.283672         0.244397
 H         4.596994         0.168023         1.292322
 H         1.948423        -0.545989         2.265123
