19
Iteration:  1519charge 0 multiplicity 1
 C         3.710961        -2.559930         0.019719
 C         3.178693        -1.135497         0.173510
 O         2.220157        -0.694974        -0.869448
 C         1.455981         0.172154         0.119522
 C         0.075034        -0.139338         0.158766
 C         2.211143         1.543148        -0.083736
 O         3.599456         1.288053         0.047507
 C         3.705432         0.074545         0.795057
 C         2.354529        -0.391971         1.228513
 H         3.231264        -3.065055        -0.838613
 H         4.792424        -2.630296        -0.011510
 H         3.483087        -3.184534         0.854144
 H        -0.519315         0.637196         0.730943
 H        -0.196920         0.021827        -0.922747
 H        -0.212295        -1.209468         0.306455
 H         2.127739         1.882380        -1.136783
 H         2.099216         2.403090         0.629766
 H         4.619318         0.081719         1.454884
 H         2.205319        -0.584080         2.248301
