19
Iteration:  3801charge 0 multiplicity 1
 C         3.824744        -2.551644         0.195493
 C         3.005852        -1.271635         0.195293
 O         2.359759        -0.771218        -1.073243
 C         1.597156         0.200114        -0.088296
 C         0.109890         0.393763        -0.469845
 C         2.299788         1.543628        -0.014355
 O         3.605891         1.253063         0.574425
 C         3.576100        -0.040800         1.102791
 C         2.116224        -0.622550         1.155817
 H         3.179060        -3.479429         0.071780
 H         4.517814        -2.605883        -0.548217
 H         4.360118        -2.518752         1.172867
 H        -0.612622         0.052045         0.355204
 H        -0.063933         1.386255        -0.816086
 H        -0.013969        -0.332443        -1.263455
 H         2.329367         1.798948        -1.053423
 H         1.642610         2.094159         0.601567
 H         4.418949        -0.242004         1.766811
 H         1.484989        -1.080254         1.884108
