19
Iteration:  3771charge 0 multiplicity 1
 C         3.714779        -2.553807         0.076103
 C         3.131103        -1.200971         0.138978
 O         2.390933        -0.728033        -1.007201
 C         1.554377         0.178333        -0.005875
 C         0.126805         0.258861        -0.520713
 C         2.310610         1.552489        -0.003910
 O         3.633577         1.244204         0.572500
 C         3.525799        -0.057040         1.104755
 C         2.125497        -0.557013         1.210167
 H         2.922600        -3.168004        -0.369469
 H         4.776027        -2.631081        -0.331371
 H         3.790427        -2.994212         1.137524
 H        -0.657542         0.530313         0.227268
 H         0.083356         0.865128        -1.403900
 H        -0.158083        -0.740621        -0.837524
 H         2.357819         1.731594        -1.051990
 H         1.676269         2.305759         0.584085
 H         4.275719        -0.176665         1.931504
 H         1.727468        -0.836681         2.189476
