19
Iteration:  1865charge 0 multiplicity 1
 C         3.645599        -2.608771        -0.081539
 C         3.123360        -1.107800         0.040881
 O         2.461217        -0.540743        -0.998328
 C         1.523065         0.253719         0.027000
 C         0.076973        -0.089629        -0.155878
 C         2.166971         1.584233         0.123335
 O         3.597125         1.266969         0.419519
 C         3.666263        -0.000227         1.004095
 C         2.284483        -0.568561         1.155936
 H         4.184671        -2.943053         0.786610
 H         2.780173        -3.293602        -0.332956
 H         4.200981        -2.825295        -1.004264
 H        -0.158575        -1.082395         0.317419
 H        -0.590181         0.675096         0.296402
 H        -0.195249        -0.158504        -1.223035
 H         1.993896         2.299299        -0.668888
 H         1.703796         1.982955         0.990297
 H         4.434389        -0.206102         1.694579
 H         1.930014        -1.015761         2.144589
