19
Iteration:  2202charge 0 multiplicity 1
 C         3.664809        -2.538471        -0.241963
 C         3.198162        -1.099030         0.026392
 O         2.594813        -0.416731        -1.044361
 C         1.598703         0.138817        -0.106558
 C         0.135489         0.060032        -0.382072
 C         2.186246         1.544580         0.238976
 O         3.499661         1.274670         0.873833
 C         3.529441        -0.107159         1.092682
 C         2.087490        -0.753115         1.070195
 H         4.408204        -2.629458        -1.068441
 H         4.102147        -2.920369         0.772378
 H         2.763541        -3.162501        -0.583313
 H        -0.196177         0.970121        -0.846762
 H         0.108066        -0.760001        -1.095529
 H        -0.490337        -0.253570         0.498955
 H         2.316222         2.088137        -0.704451
 H         1.727654         2.229517         1.021545
 H         4.432695        -0.262518         1.685700
 H         1.567610        -1.367953         1.799112
