19
Iteration:  1256
 C         3.731373        -2.542630         0.161990
 C         3.111108        -1.151455         0.224336
 O         2.044732        -0.977105        -0.802415
 C         1.644670         0.071779         0.197181
 C        -0.004095         0.030003         0.115741
 C         2.139789         1.470765        -0.233325
 O         3.600638         1.427385        -0.048462
 C         3.806926         0.193711         0.706312
 C         2.562628        -0.369822         1.307853
 H         3.881636        -2.921018         1.172821
 H         2.916013        -3.080742        -0.509883
 H         4.611978        -2.514314        -0.497928
 H        -0.443884         0.965811        -0.348979
 H        -0.258366        -0.839452        -0.580985
 H        -0.559608        -0.086461         1.086784
 H         1.750120         1.746261        -1.249869
 H         1.676484         2.169158         0.419934
 H         4.823518         0.034987         0.998814
 H         2.415500        -0.513948         2.464357
