19
Iteration:  4878charge 0 multiplicity 1
 C         3.812739        -2.523777        -0.050250
 C         3.154628        -1.162675         0.019313
 O         2.478475        -0.504740        -1.083217
 C         1.615985         0.229860        -0.109554
 C         0.170257         0.242510        -0.466861
 C         2.138664         1.528451         0.316996
 O         3.523353         1.223497         0.763839
 C         3.499824        -0.185378         1.135823
 C         2.114460        -0.733043         1.018349
 H         3.167230        -3.317483        -0.509521
 H         4.604597        -2.516955        -0.887560
 H         4.222646        -2.830413         0.951548
 H        -0.227956        -0.813892        -0.542489
 H        -0.445910         0.650364         0.352665
 H         0.064405         0.840175        -1.441382
 H         2.293495         2.228995        -0.526554
 H         1.484509         1.911077         1.091778
 H         4.335361        -0.510380         1.731520
 H         1.446136        -1.291693         1.641921
