19
Iteration:  1565charge 0 multiplicity 1
 C         3.956967        -2.401447        -0.043178
 C         3.157409        -1.199942         0.107982
 O         2.131844        -0.855471        -0.880841
 C         1.553184         0.137682         0.160972
 C        -0.041095         0.217641         0.067518
 C         2.202762         1.447708        -0.133177
 O         3.624050         1.279214         0.191390
 C         3.634581         0.010522         0.803443
 C         2.309532        -0.507770         1.253427
 H         3.315890        -3.331346         0.054814
 H         4.468283        -2.434054        -0.967154
 H         4.835281        -2.475889         0.604771
 H        -0.466542         1.216178        -0.083951
 H        -0.379156        -0.652005        -0.522094
 H        -0.406612        -0.164850         1.062788
 H         2.112742         1.841877        -1.139943
 H         1.718206         2.108173         0.672489
 H         4.463102         0.030349         1.519183
 H         2.008113        -0.781259         2.326911
