19
Iteration:  1401
 C         3.946489        -2.479556         0.000264
 C         3.113852        -1.196325         0.297205
 O         2.090856        -0.867361        -0.792105
 C         1.476211         0.149424         0.099637
 C         0.000852         0.112649         0.165594
 C         2.185287         1.484001        -0.257609
 O         3.635371         1.247305        -0.036733
 C         3.757080         0.070707         0.825394
 C         2.299531        -0.449671         1.292737
 H         5.043971        -2.074309         0.040775
 H         3.786017        -3.253812         0.732922
 H         3.726713        -2.856227        -1.029727
 H        -0.557705        -0.703841        -0.266696
 H        -0.285023         0.148896         1.201572
 H        -0.360063         1.076474        -0.203526
 H         1.998143         1.791389        -1.283055
 H         1.913312         2.292468         0.419118
 H         4.666095         0.371662         1.366169
 H         2.137728        -0.583423         2.305289
