19
Iteration:   452charge 0 multiplicity 1
 C         3.998415        -2.321130        -0.180974
 C         3.143313        -1.166294         0.227922
 O         2.048550        -0.967392        -0.700056
 C         1.466978         0.052956         0.109165
 C        -0.112630         0.268882         0.221445
 C         2.265467         1.371612        -0.401271
 O         3.699716         1.274882         0.117022
 C         3.694745         0.055777         0.821743
 C         2.330736        -0.463767         1.387136
 H         4.549442        -2.828140         0.545429
 H         3.363185        -3.179780        -0.611156
 H         4.653965        -1.851756        -0.939675
 H        -0.525695         0.781579        -0.678471
 H        -0.618709        -0.679252         0.386847
 H        -0.308890         0.974984         1.039997
 H         2.027668         1.418869        -1.447025
 H         1.850929         2.224474         0.095997
 H         4.660674        -0.081635         1.419283
 H         1.974781        -0.692687         2.406561
