19
Iteration:  3026
 C         3.770885        -2.582501         0.169624
 C         3.090232        -1.234534         0.105104
 O         2.413376        -0.574346        -1.078358
 C         1.571079         0.277794        -0.179582
 C         0.161010         0.081202        -0.443493
 C         2.326273         1.598377         0.020923
 O         3.648501         1.215767         0.698601
 C         3.509889        -0.142584         1.051639
 C         2.020379        -0.518538         1.108992
 H         2.947743        -3.400600        -0.130873
 H         4.780343        -2.527059        -0.296102
 H         3.788623        -2.722485         1.296950
 H        -0.161534         0.718717        -1.260256
 H         0.009558        -0.938214        -0.779999
 H        -0.499973         0.330920         0.434339
 H         2.659883         2.155118        -0.828240
 H         1.768964         2.216380         0.785357
 H         4.046376        -0.403317         2.001270
 H         1.328311        -0.844316         1.962641
