19
Iteration:  3039
 C         3.782338        -2.526698         0.174083
 C         3.049454        -1.195203         0.159717
 O         2.482843        -0.605257        -1.019551
 C         1.603006         0.223321        -0.148943
 C         0.048558         0.168598        -0.481283
 C         2.415389         1.617508         0.026298
 O         3.619676         1.168409         0.632190
 C         3.408604        -0.131618         1.130326
 C         2.040912        -0.574159         1.054769
 H         3.308123        -3.426624        -0.290874
 H         4.698714        -2.459152        -0.509594
 H         4.250326        -2.790190         1.112637
 H        -0.409590         0.988116        -1.034089
 H        -0.168267        -0.895637        -0.906063
 H        -0.456189         0.129990         0.495334
 H         2.523867         2.011689        -0.947444
 H         1.916217         2.447420         0.567903
 H         4.102828        -0.437409         1.875767
 H         1.466464        -0.962467         1.967955
