19
Iteration:  2531
 C         3.954986        -2.362229        -0.228849
 C         3.111663        -1.207728         0.111071
 O         2.307208        -0.645222        -0.975536
 C         1.528535         0.105922        -0.047438
 C         0.146123         0.315924        -0.577883
 C         2.224473         1.494910         0.226627
 O         3.499430         1.236103         0.822706
 C         3.568932        -0.158250         1.079335
 C         2.129907        -0.732834         1.176918
 H         3.311049        -3.254252        -0.462797
 H         4.610958        -2.065220        -1.031339
 H         4.553494        -2.806360         0.567137
 H        -0.728655        -0.226906        -0.103043
 H        -0.094093         1.436362        -0.653038
 H         0.336456        -0.007819        -1.608684
 H         2.562441         1.924344        -0.703437
 H         1.706899         2.215358         0.856293
 H         4.324886        -0.378952         1.901022
 H         1.575932        -1.169131         1.934149
