19
Iteration:  4746charge 0 multiplicity 1
 C         3.911804        -2.374096         0.086006
 C         3.060107        -1.215235         0.025788
 O         2.443561        -0.488440        -1.092965
 C         1.590957         0.177769        -0.094583
 C         0.107625         0.359492        -0.396798
 C         2.243554         1.500308         0.144669
 O         3.530972         1.106329         0.631734
 C         3.437610        -0.246662         1.112517
 C         2.113253        -0.774460         1.087466
 H         3.527491        -3.181591        -0.479002
 H         4.999717        -2.153984        -0.235732
 H         4.005066        -2.595283         1.210520
 H        -0.086769         1.419584        -0.727888
 H        -0.162751        -0.372922        -1.057809
 H        -0.554537         0.082666         0.493887
 H         2.313061         2.074680        -0.798125
 H         1.855159         2.218945         0.846469
 H         4.309932        -0.482676         1.782695
 H         1.667692        -1.429925         1.872123
