19
Iteration:  3086charge 0 multiplicity 1
 C         3.872243        -2.502883        -0.093254
 C         3.115275        -1.283703         0.294572
 O         2.397907        -0.819810        -0.896035
 C         1.560833         0.135978        -0.059151
 C         0.145924         0.395660        -0.671628
 C         2.318134         1.507768        -0.030614
 O         3.532646         1.273701         0.650047
 C         3.480966        -0.081652         1.184438
 C         2.048627        -0.608794         1.249052
 H         3.173530        -3.244549        -0.288966
 H         4.483784        -2.464327        -1.009547
 H         4.505022        -2.824482         0.733399
 H         0.088746         1.486031        -0.989066
 H        -0.023857        -0.376964        -1.506679
 H        -0.645888         0.270796         0.120346
 H         2.532111         2.092915        -0.992935
 H         1.747428         2.304336         0.461242
 H         4.302318         0.060074         1.906402
 H         1.490311        -0.732881         2.148411
