19
Iteration:  3535
 C         3.571389        -2.638344         0.088699
 C         3.170544        -1.154306         0.137860
 O         2.506488        -0.546506        -1.002133
 C         1.623450         0.180482        -0.071850
 C         0.154992         0.195026        -0.548535
 C         2.227748         1.511037         0.145815
 O         3.572182         1.263273         0.504981
 C         3.548417        -0.027005         1.118182
 C         2.169001        -0.653854         1.155736
 H         2.790085        -3.321548        -0.308841
 H         4.601732        -2.917801        -0.179028
 H         3.658745        -3.045108         1.098357
 H         0.125606         0.328560        -1.645196
 H        -0.270862        -0.793043        -0.276928
 H        -0.499795         0.983615        -0.075489
 H         2.174106         2.261118        -0.713898
 H         1.708800         1.966857         1.003574
 H         4.292299        -0.212234         1.870644
 H         1.632818        -1.072682         1.979093
