19
Iteration:  4136
 C         3.815345        -2.602577        -0.120837
 C         3.041329        -1.207158         0.285809
 O         2.305240        -0.698116        -0.910466
 C         1.611135         0.208825        -0.031117
 C         0.158824         0.149641        -0.570120
 C         2.406217         1.569760        -0.005221
 O         3.639944         1.214739         0.543246
 C         3.447106        -0.062654         1.211553
 C         2.051226        -0.444051         1.260607
 H         3.360986        -2.940118        -1.040398
 H         4.879237        -2.375789        -0.497964
 H         3.850449        -3.406614         0.635986
 H        -0.368070         1.182280        -0.659404
 H         0.065511        -0.332333        -1.537866
 H        -0.343915        -0.551821         0.102325
 H         2.566770         1.905126        -1.080724
 H         1.976256         2.478993         0.582639
 H         4.147011        -0.327658         1.986012
 H         1.415971        -0.645678         2.142442
