19
Iteration:   182
 C         3.510924        -2.496984         0.002379
 C         3.176004        -1.092177         0.181220
 O         2.210427        -0.830317        -0.863248
 C         1.579053         0.130618         0.177891
 C         0.047291        -0.126773         0.101627
 C         2.157399         1.503748        -0.110353
 O         3.586035         1.379795         0.096522
 C         3.816109         0.173462         0.752449
 C         2.515321        -0.443865         1.309778
 H         4.148970        -2.986346         0.699622
 H         2.536719        -2.982737        -0.084587
 H         3.905985        -2.602489        -1.107768
 H        -0.075160        -0.470028        -1.010006
 H        -0.242802        -0.988056         0.772884
 H        -0.544315         0.762711         0.474028
 H         2.176666         1.802468        -1.185911
 H         1.703673         2.281505         0.555556
 H         4.873205         0.151438         1.112302
 H         2.199703        -0.935481         2.168876
