19
Iteration:  2557
 C         3.805961        -2.442528        -0.261826
 C         3.095966        -1.174692         0.107958
 O         2.425165        -0.541752        -1.010438
 C         1.566134         0.183818        -0.074898
 C         0.135488         0.059708        -0.547012
 C         2.310922         1.586108         0.253517
 O         3.595710         1.273160         0.773355
 C         3.453671        -0.155980         1.170274
 C         2.061815        -0.682117         1.174501
 H         3.140422        -3.412220        -0.324666
 H         4.294383        -2.200675        -1.257648
 H         4.666587        -2.771556         0.379755
 H        -0.245917        -0.924179        -0.264727
 H        -0.564148         0.869415        -0.334328
 H         0.262959        -0.014343        -1.642555
 H         2.643011         2.239861        -0.561379
 H         1.765588         2.174310         1.067876
 H         4.131724        -0.411556         1.954710
 H         1.460339        -1.142314         2.030748
