19
Iteration:  2759charge 0 multiplicity 1
 C         3.664469        -2.558024        -0.028310
 C         3.180769        -1.189487         0.056041
 O         2.471952        -0.627143        -0.989860
 C         1.632313         0.130585        -0.075554
 C         0.151802         0.218555        -0.537840
 C         2.200591         1.545395         0.169450
 O         3.464991         1.359689         0.747679
 C         3.617841        -0.111462         1.071796
 C         2.190262        -0.715656         1.139711
 H         2.783661        -3.224746        -0.112387
 H         4.273780        -2.801856        -0.981101
 H         4.281339        -2.852753         0.838700
 H        -0.525211         0.346781         0.309670
 H         0.026492         1.179417        -1.130238
 H        -0.181226        -0.635152        -1.025064
 H         2.372913         2.090225        -0.827045
 H         1.425606         2.146460         0.621671
 H         4.403137         0.015420         1.822703
 H         1.547137        -1.226765         1.936169
