19
Iteration:  3506
 C         3.661154        -2.503230         0.094905
 C         3.062155        -1.170091         0.144570
 O         2.473224        -0.619612        -0.997316
 C         1.604638         0.268685        -0.048924
 C         0.112248         0.081911        -0.562618
 C         2.351279         1.599463         0.126920
 O         3.639413         1.168768         0.570297
 C         3.541971        -0.119684         1.055313
 C         2.052754        -0.545595         1.142717
 H         2.886504        -3.379569         0.001807
 H         4.419368        -2.670952        -0.658604
 H         4.211519        -2.703922         1.038982
 H        -0.119802         0.647058        -1.426025
 H         0.084855        -1.011382        -0.877928
 H        -0.602512         0.146505         0.235882
 H         2.403621         2.338034        -0.679340
 H         1.814478         2.224862         0.935413
 H         4.149489        -0.395449         1.898397
 H         1.372281        -0.721299         2.040641
