19
Iteration:  4978
 C         3.815590        -2.470672        -0.204490
 C         3.083801        -1.148019         0.055844
 O         2.488205        -0.402009        -1.047770
 C         1.580168         0.205532        -0.007226
 C         0.161192         0.177149        -0.518629
 C         2.271491         1.483875         0.255039
 O         3.513627         1.181048         0.815457
 C         3.453534        -0.185764         1.201366
 C         2.084422        -0.785585         1.017589
 H         3.303045        -3.298660        -0.873888
 H         4.716727        -2.204298        -0.847703
 H         4.368816        -2.792325         0.680197
 H        -0.529530         0.424408         0.301927
 H         0.036533         0.992058        -1.250278
 H        -0.161498        -0.819915        -0.749444
 H         2.356795         1.980953        -0.749344
 H         1.808908         2.306907         0.822998
 H         4.100804        -0.606872         1.976702
 H         1.615445        -1.166210         1.935209
