19
Iteration:   802
 C         3.915809        -2.491542        -0.037047
 C         3.132413        -1.193572         0.186462
 O         2.159511        -0.889219        -0.840751
 C         1.495798         0.091281         0.217153
 C        -0.050415         0.231961         0.244997
 C         2.203274         1.417899        -0.218921
 O         3.580444         1.325761        -0.014790
 C         3.657989         0.087396         0.777247
 C         2.436357        -0.479115         1.296013
 H         4.794757        -2.688231         0.597170
 H         3.321641        -3.436715         0.149730
 H         4.368674        -2.325811        -1.052692
 H        -0.373314         0.654879        -0.726976
 H        -0.556342        -0.678374         0.631757
 H        -0.387550         1.003286         0.903905
 H         1.962707         1.540080        -1.258887
 H         1.860017         2.242959         0.380613
 H         4.699786         0.041731         1.338528
 H         2.018849        -0.722113         2.234959
