19
Iteration:  2597
 C         3.604630        -2.565370        -0.167825
 C         3.150405        -1.169075         0.086707
 O         2.654054        -0.320141        -1.085914
 C         1.669857         0.166403        -0.119774
 C         0.171173        -0.018473        -0.449451
 C         2.240370         1.561049         0.223365
 O         3.501457         1.271532         0.729835
 C         3.472609        -0.102884         1.186247
 C         2.091735        -0.722432         1.132075
 H         2.685718        -3.125151        -0.222046
 H         4.213903        -2.710682        -1.010303
 H         4.022012        -2.958331         0.742701
 H        -0.147409        -0.872194        -1.104688
 H        -0.346668        -0.231720         0.553548
 H        -0.149949         0.930453        -0.807260
 H         2.186337         2.068872        -0.708877
 H         1.537113         2.037493         0.884101
 H         4.183865        -0.217687         1.949700
 H         1.580609        -1.323900         1.839614
