19
Iteration:  2830charge 0 multiplicity 1
 C         3.670147        -2.520242        -0.116779
 C         3.020098        -1.177809         0.146231
 O         2.424991        -0.549803        -0.993839
 C         1.586463         0.226066         0.010802
 C         0.235721         0.030014        -0.522364
 C         2.293416         1.529632         0.087398
 O         3.616563         1.224373         0.608575
 C         3.518173        -0.054919         1.137360
 C         2.113842        -0.563138         1.238938
 H         3.200468        -3.328865        -0.656398
 H         4.670840        -2.517491        -0.391369
 H         3.691600        -2.916513         0.922358
 H         0.081857        -1.089501        -0.661416
 H        -0.495053         0.439431         0.154573
 H         0.184658         0.319764        -1.661432
 H         2.328288         2.028654        -0.846803
 H         1.886658         2.358983         0.775326
 H         4.191808        -0.375326         1.925501
 H         1.391398        -0.745653         1.944066
