19
Iteration:  3658charge 0 multiplicity 1
 C         3.716717        -2.533593         0.089760
 C         3.164465        -1.221431         0.134893
 O         2.424615        -0.721960        -0.938074
 C         1.614856         0.107895        -0.127729
 C         0.121284         0.352796        -0.552788
 C         2.237665         1.516117         0.078648
 O         3.623966         1.283552         0.568149
 C         3.511818        -0.041152         1.141781
 C         2.057216        -0.675793         1.123063
 H         2.874066        -3.388800         0.163860
 H         4.271645        -2.657550        -0.832699
 H         4.492485        -2.599291         0.850272
 H         0.051982         1.299849        -1.095486
 H        -0.287139        -0.575801        -1.052274
 H        -0.331564         0.520332         0.433916
 H         2.411339         2.087858        -0.877082
 H         1.702462         2.034706         0.870337
 H         4.399304        -0.125903         1.823087
 H         1.601323        -1.048438         2.096577
