19
Iteration:     3charge 0 multiplicity 1
 C         3.770049        -2.520563         0.063291
 C         3.110869        -1.175516         0.173703
 O         2.162186        -0.808199        -0.817018
 C         1.536194         0.154218         0.120975
 C         0.050855         0.053876         0.144462
 C         2.188892         1.481641        -0.195137
 O         3.585664         1.275184         0.042639
 C         3.713317         0.089077         0.749478
 C         2.406464        -0.389324         1.269983
 H         4.486857        -2.687970         0.925467
 H         3.048885        -3.386541         0.140077
 H         4.362125        -2.584939        -0.814402
 H        -0.371640         0.685505         0.896344
 H        -0.269000         0.274796        -0.892927
 H        -0.194415        -0.990755         0.420326
 H         2.080799         1.791492        -1.236016
 H         1.835500         2.328019         0.452581
 H         4.663799         0.046953         1.337735
 H         2.114762        -0.674891         2.338726
