19
Iteration:   284charge 0 multiplicity 1
 C         3.899134        -2.514421         0.029746
 C         3.118345        -1.285970         0.171140
 O         2.120984        -0.800999        -0.786558
 C         1.527831         0.217731         0.113524
 C         0.018081         0.127340         0.231995
 C         2.158297         1.480833        -0.244081
 O         3.520580         1.287670         0.037143
 C         3.757687         0.068964         0.744659
 C         2.434604        -0.484905         1.246311
 H         4.370259        -2.643258         1.080246
 H         3.234068        -3.402312        -0.066789
 H         4.661111        -2.357817        -0.732715
 H        -0.600585         0.932971        -0.255386
 H        -0.388079        -0.788446        -0.258687
 H        -0.238917         0.106899         1.344777
 H         1.992164         1.679106        -1.310006
 H         1.856379         2.382123         0.362160
 H         4.750988         0.021696         1.040387
 H         2.170877        -0.442759         2.366373
