19
Iteration:   711charge 0 multiplicity 1
 C         3.541014        -2.498968         0.037693
 C         3.072086        -1.185008         0.202297
 O         2.310421        -0.682619        -0.886400
 C         1.568675         0.199752         0.158449
 C         0.130373        -0.221135         0.280930
 C         2.103843         1.532018        -0.140883
 O         3.636398         1.264621        -0.096376
 C         3.785018         0.133322         0.779957
 C         2.424962        -0.400822         1.219956
 H         4.334730        -2.800581         0.719600
 H         2.674039        -3.238993         0.070284
 H         3.957891        -2.416250        -0.965732
 H        -0.501050         0.205286        -0.462193
 H         0.130733        -1.239443         0.504846
 H        -0.294343         0.277070         1.158161
 H         1.745117         1.884005        -1.115744
 H         1.800657         2.174211         0.664617
 H         4.503475         0.310363         1.501460
 H         2.043508        -0.579977         2.278586
