19
Iteration:  1184
 C         3.992927        -2.436693         0.120485
 C         3.115110        -1.172962         0.190310
 O         2.141618        -0.865829        -0.853010
 C         1.495046         0.099665        -0.011522
 C         0.066635         0.181475         0.326094
 C         2.170049         1.449045        -0.298437
 O         3.618234         1.193534        -0.075357
 C         3.615188         0.074152         0.865791
 C         2.278315        -0.425648         1.298996
 H         5.046514        -2.140179         0.418164
 H         3.552211        -3.246620         0.592910
 H         3.917768        -2.680558        -0.932899
 H        -0.550537         0.603271        -0.495535
 H        -0.215910        -0.831885         0.664263
 H        -0.038402         0.960515         1.119532
 H         2.110454         1.837778        -1.307388
 H         1.653458         2.231248         0.386100
 H         4.704088         0.026859         1.221745
 H         1.904317        -0.649038         2.379600
