19
Iteration:  4770
 C         3.880316        -2.509964        -0.099194
 C         3.115146        -1.242066         0.128840
 O         2.467190        -0.576299        -1.032242
 C         1.580826         0.155079        -0.096644
 C         0.102894         0.259290        -0.447969
 C         2.176513         1.561524         0.179635
 O         3.623288         1.231018         0.730300
 C         3.493729        -0.127890         1.103467
 C         2.018748        -0.701928         1.048804
 H         3.249710        -3.238168        -0.604855
 H         4.856411        -2.342230        -0.624040
 H         4.200831        -2.836049         0.916785
 H         0.046605         0.980288        -1.268142
 H        -0.343070        -0.736215        -0.573191
 H        -0.518563         0.643871         0.378683
 H         2.319466         2.101970        -0.767299
 H         1.791808         2.333119         0.854620
 H         4.112518        -0.404471         1.941862
 H         1.470648        -1.113177         1.889314
