19
Iteration:  3961
 C         3.783343        -2.584077         0.224593
 C         3.001633        -1.252266         0.169001
 O         2.416535        -0.700139        -0.994732
 C         1.583555         0.203653        -0.110955
 C         0.096760         0.242188        -0.434296
 C         2.331996         1.575929        -0.094004
 O         3.698266         1.255639         0.571745
 C         3.515186        -0.105865         1.043871
 C         1.996753        -0.499087         1.158825
 H         3.145553        -3.363661        -0.228898
 H         4.862793        -2.517993        -0.205128
 H         3.862599        -2.953191         1.228343
 H         0.003884        -0.729513        -0.927247
 H        -0.477115         0.290119         0.494693
 H        -0.321168         0.936956        -1.132947
 H         2.690394         1.975983        -1.061295
 H         1.914730         2.341168         0.524486
 H         4.314073        -0.147200         1.800428
 H         1.506934        -1.090308         1.903305
