19
Iteration:  4009
 C         3.739912        -2.600385        -0.020511
 C         3.105127        -1.266027         0.325112
 O         2.464385        -0.706862        -0.837952
 C         1.564681         0.219400        -0.047691
 C         0.079151         0.257631        -0.604270
 C         2.316943         1.552665        -0.108152
 O         3.578173         1.253108         0.526723
 C         3.518748        -0.107419         1.169535
 C         2.093925        -0.499182         1.263730
 H         2.939939        -3.435244        -0.049152
 H         4.198405        -2.356660        -0.953191
 H         4.614045        -2.988785         0.642933
 H        -0.631718        -0.558263        -0.286729
 H        -0.210200         1.275235        -0.418891
 H         0.097049         0.162894        -1.711832
 H         2.638301         1.812563        -1.131517
 H         1.937810         2.429035         0.451839
 H         4.361401        -0.143384         1.866692
 H         1.402437        -1.024612         1.964726
