19
Iteration:  4690
 C         3.643838        -2.471467        -0.214598
 C         3.134411        -1.184332         0.168947
 O         2.445929        -0.610091        -0.888802
 C         1.622197         0.158220        -0.035415
 C         0.265883         0.113764        -0.566927
 C         2.244793         1.536944         0.076457
 O         3.522193         1.256250         0.694977
 C         3.551836        -0.140227         1.153756
 C         2.095944        -0.582565         1.179516
 H         2.941639        -3.185452        -0.704037
 H         4.472645        -2.249308        -0.956094
 H         4.076364        -2.990423         0.678924
 H        -0.379795         0.711330         0.128256
 H         0.195813         0.672324        -1.432789
 H        -0.256706        -0.863206        -0.479782
 H         2.325003         1.919869        -0.970768
 H         1.857228         2.225180         0.823581
 H         4.201222        -0.201379         2.030418
 H         1.422398        -0.946543         1.967673
