19
Iteration:    81
 C         3.938061        -2.560879        -0.131011
 C         3.128810        -1.257540         0.216729
 O         2.200641        -0.905083        -0.734498
 C         1.551763         0.098576         0.171769
 C        -0.008033         0.267622         0.085346
 C         2.168471         1.432663        -0.265845
 O         3.526632         1.388006         0.152499
 C         3.613586         0.096887         0.723576
 C         2.354466        -0.506351         1.365390
 H         4.744985        -2.675029         0.666158
 H         3.428347        -3.569997        -0.303361
 H         4.526797        -2.335254        -0.985949
 H        -0.090576         1.332281        -0.137453
 H        -0.408245        -0.387280        -0.710072
 H        -0.398819         0.061274         1.110275
 H         2.117753         1.534750        -1.351035
 H         1.836178         2.393263         0.166653
 H         4.423119         0.224725         1.435321
 H         2.256481        -0.571145         2.539764
