19
Iteration:   212
 C         3.959749        -2.520435        -0.149954
 C         3.107605        -1.246212         0.157080
 O         2.083552        -0.859235        -0.732443
 C         1.521136         0.174973         0.270638
 C         0.002576         0.143032         0.114747
 C         2.167423         1.458629        -0.215168
 O         3.623696         1.348853         0.108972
 C         3.703793         0.090686         0.747318
 C         2.374846        -0.470460         1.341306
 H         4.792266        -2.615159         0.523825
 H         3.281420        -3.389862        -0.011008
 H         4.268558        -2.370714        -1.168955
 H        -0.234637        -0.145849        -0.892518
 H        -0.493199        -0.664424         0.632999
 H        -0.560126         1.028037         0.333267
 H         2.181183         1.481413        -1.308395
 H         1.750358         2.365651         0.194277
 H         4.610466        -0.133380         1.229848
 H         2.085103        -0.360239         2.363488
