19
Iteration:  1186charge 0 multiplicity 1
 C         3.981746        -2.411716         0.104334
 C         3.119085        -1.153705         0.211683
 O         2.152751        -0.868351        -0.835558
 C         1.483762         0.104595        -0.007876
 C         0.069613         0.191606         0.323454
 C         2.179164         1.427561        -0.309445
 O         3.607810         1.199638        -0.083987
 C         3.621627         0.062580         0.870055
 C         2.272822        -0.447091         1.302103
 H         5.010026        -2.122570         0.437391
 H         3.560017        -3.248178         0.591582
 H         3.942227        -2.678043        -0.978906
 H        -0.554623         0.597257        -0.525452
 H        -0.249263        -0.820377         0.596428
 H         0.024854         0.924807         1.221756
 H         2.087437         1.812694        -1.310741
 H         1.729198         2.195296         0.343800
 H         4.709979        -0.048617         1.221699
 H         1.877808        -0.614905         2.278050
