19
Iteration:  1481
 C         3.549353        -2.638324         0.052189
 C         3.166217        -1.193126         0.185256
 O         2.235281        -0.766770        -0.855915
 C         1.632594         0.041867         0.143087
 C         0.110975        -0.059698         0.062903
 C         2.128582         1.502628        -0.091903
 O         3.502110         1.422452         0.099671
 C         3.788662         0.195090         0.734092
 C         2.509707        -0.361517         1.239965
 H         3.833997        -2.879165        -0.992377
 H         4.352157        -3.011814         0.771211
 H         2.524347        -3.085010         0.272272
 H        -0.272133        -0.241077         1.067766
 H        -0.279989         0.924698        -0.237440
 H        -0.234439        -0.879764        -0.560467
 H         1.896193         1.694207        -1.154436
 H         1.589103         2.196041         0.550587
 H         4.755047         0.147965         1.213529
 H         2.455204        -0.599127         2.363284
