19
Iteration:  2962
 C         3.535027        -2.659078        -0.116564
 C         3.115921        -1.165559         0.313094
 O         2.593339        -0.561554        -0.930209
 C         1.603766         0.158121        -0.064644
 C         0.177716         0.109884        -0.576543
 C         2.186035         1.560543         0.060432
 O         3.574280         1.256794         0.508336
 C         3.560147         0.022267         1.153801
 C         2.154777        -0.604912         1.279821
 H         2.712380        -3.250896        -0.516838
 H         4.274620        -2.668160        -0.921580
 H         3.974166        -3.282925         0.657995
 H         0.236981        -0.345625        -1.585778
 H        -0.640316        -0.441449        -0.045794
 H        -0.053107         1.196983        -0.551056
 H         2.376488         1.934612        -0.893237
 H         1.638687         2.207919         0.779718
 H         4.166311        -0.017749         2.099027
 H         1.690130        -0.911335         2.255004
