19
Iteration:  1395charge 0 multiplicity 1
 C         3.949131        -2.464588        -0.026873
 C         3.134581        -1.168787         0.293415
 O         2.103355        -0.875897        -0.756943
 C         1.529013         0.101986         0.135438
 C        -0.026811         0.146114         0.159115
 C         2.159949         1.443210        -0.280400
 O         3.633767         1.261728        -0.044214
 C         3.773058         0.111124         0.828397
 C         2.313764        -0.422432         1.280884
 H         4.990147        -2.338112         0.046257
 H         3.653384        -3.363631         0.584327
 H         3.683150        -2.955352        -0.978322
 H        -0.570750        -0.603801        -0.452412
 H        -0.498843         0.056285         1.180367
 H        -0.376251         1.148554        -0.159876
 H         1.920584         1.842026        -1.291802
 H         1.757701         2.285803         0.355382
 H         4.612275         0.024622         1.568522
 H         2.088737        -0.640687         2.387169
