19
Iteration:  3437
 C         3.765420        -2.537648        -0.001968
 C         3.160361        -1.215011         0.151468
 O         2.391092        -0.692512        -0.994592
 C         1.596709         0.086980        -0.109572
 C         0.209271         0.357683        -0.439973
 C         2.337233         1.443401        -0.104817
 O         3.473382         1.314348         0.734630
 C         3.474841        -0.063769         1.185995
 C         2.089309        -0.657971         1.145891
 H         3.065858        -3.432446        -0.115131
 H         4.570261        -2.635532        -0.784496
 H         4.385901        -2.696215         0.913223
 H         0.279866         1.025251        -1.314119
 H        -0.302953        -0.517145        -0.775789
 H        -0.343012         0.797947         0.407019
 H         2.599256         1.924098        -1.110900
 H         1.697184         2.279099         0.324604
 H         4.263308        -0.040047         1.953552
 H         1.400729        -1.027912         1.859246
