19
Iteration:  2764
 C         3.641290        -2.602516        -0.043595
 C         3.193023        -1.166670         0.066962
 O         2.485836        -0.607907        -0.993035
 C         1.678362         0.142415        -0.085139
 C         0.179181         0.206866        -0.511864
 C         2.156060         1.540775         0.136211
 O         3.476127         1.326542         0.745773
 C         3.610550        -0.056118         1.054396
 C         2.165028        -0.693302         1.148768
 H         2.776736        -3.274873        -0.054548
 H         4.221811        -2.699738        -0.914838
 H         4.169398        -2.882156         0.869329
 H        -0.463734         0.216272         0.397043
 H         0.011418         1.145660        -1.017060
 H        -0.156109        -0.665660        -1.201351
 H         2.323034         2.078310        -0.767553
 H         1.359230         2.076259         0.782450
 H         4.344766        -0.149408         1.884289
 H         1.597333        -1.201036         1.908136
