19
Iteration:  3885
 C         3.577611        -2.709675         0.090899
 C         3.093315        -1.219598         0.208152
 O         2.442087        -0.678218        -0.870904
 C         1.656238         0.236353        -0.043548
 C         0.083471         0.105452        -0.629068
 C         2.278244         1.574980        -0.061471
 O         3.615129         1.276075         0.535889
 C         3.625825        -0.056779         1.085021
 C         2.150658        -0.370443         1.279779
 H         2.711328        -3.372882        -0.110170
 H         4.316509        -2.707171        -0.845692
 H         4.077217        -3.224893         0.903508
 H        -0.035863        -0.925245        -0.985329
 H        -0.646157         0.146521         0.232888
 H        -0.181192         0.802743        -1.425233
 H         2.420086         2.118524        -1.048800
 H         1.781122         2.339493         0.596210
 H         4.388707        -0.205445         1.812802
 H         1.724477        -0.661091         2.194110
