19
Iteration:  2432
 C         3.597484        -2.511000        -0.250278
 C         3.181090        -1.156505         0.041400
 O         2.515805        -0.404129        -0.976043
 C         1.626710         0.173476         0.041477
 C         0.158647        -0.021744        -0.604186
 C         2.208386         1.583895         0.256811
 O         3.559672         1.300728         0.783945
 C         3.551757        -0.150894         1.134432
 C         2.129046        -0.692946         1.139624
 H         2.743515        -3.194458        -0.653479
 H         4.450309        -2.614438        -0.985454
 H         3.880561        -3.002321         0.722551
 H        -0.593836         0.717186        -0.267762
 H         0.158693        -0.162992        -1.711754
 H        -0.117543        -1.041720        -0.171527
 H         2.254586         2.139674        -0.715786
 H         1.591715         2.232464         0.961314
 H         4.405633        -0.398277         1.851200
 H         1.638596        -1.102720         2.057936
