19
Iteration:   197
 C         3.694455        -2.494381        -0.125386
 C         3.187901        -1.117439         0.131040
 O         2.073803        -0.808170        -0.734126
 C         1.513577         0.096165         0.161343
 C         0.003276        -0.029522         0.058995
 C         2.194181         1.464003        -0.213094
 O         3.591961         1.336392         0.150811
 C         3.792380         0.079720         0.781087
 C         2.531605        -0.366403         1.369555
 H         4.517361        -2.752839         0.626876
 H         2.919678        -3.272423        -0.031238
 H         4.210701        -2.583431        -1.089278
 H        -0.276593        -0.248777        -0.979765
 H        -0.354435        -0.803113         0.750415
 H        -0.505802         0.944608         0.202857
 H         1.963920         1.644584        -1.273954
 H         1.782852         2.341602         0.354960
 H         4.694213         0.043330         1.448910
 H         2.431779        -0.753857         2.470192
