19
Iteration:    37
 C         3.986110        -2.272075        -0.100992
 C         3.000033        -1.237215         0.246809
 O         2.014919        -0.914024        -0.749709
 C         1.472418         0.090979         0.126834
 C        -0.072118         0.132961         0.164378
 C         2.386129         1.478687        -0.352666
 O         3.757253         1.276209         0.096183
 C         3.606996         0.037855         0.845601
 C         2.300244        -0.501450         1.347458
 H         4.912190        -2.155508         0.585392
 H         3.582593        -3.344111        -0.116617
 H         4.325372        -2.121523        -1.095160
 H        -0.366704         1.173396         0.200909
 H        -0.498273        -0.252881        -0.807376
 H        -0.476365        -0.566542         0.938475
 H         2.432196         1.493157        -1.443092
 H         2.026118         2.449242         0.094704
 H         4.582481        -0.187076         1.367032
 H         2.005794        -0.455904         2.513154
