19
Iteration:  1049
 C         3.913349        -2.415708         0.201709
 C         3.067708        -1.223434         0.057355
 O         2.048341        -0.866570        -0.839979
 C         1.474074         0.185572         0.136789
 C        -0.077733         0.074957         0.338192
 C         2.219088         1.524045        -0.315379
 O         3.653025         1.290583         0.055655
 C         3.731247         0.037134         0.663708
 C         2.486219        -0.471180         1.228649
 H         4.069669        -2.431169         1.239173
 H         3.502472        -3.425961        -0.136613
 H         4.851504        -2.359033        -0.355621
 H        -0.705464         0.696669        -0.327896
 H        -0.364919        -0.947460         0.047196
 H        -0.339158         0.224264         1.382969
 H         2.199250         1.700139        -1.434446
 H         2.011031         2.510409         0.182513
 H         4.760400         0.003864         1.140563
 H         2.066147        -0.702141         2.175397
