19
Iteration:  1704
 C         3.688407        -2.577580        -0.062278
 C         3.211798        -1.135572         0.058080
 O         2.268149        -0.733117        -0.968564
 C         1.537196         0.050749         0.101213
 C         0.022551         0.068524        -0.169922
 C         2.160098         1.492557         0.152509
 O         3.573212         1.390518         0.321210
 C         3.738393         0.101062         0.847814
 C         2.391925        -0.535379         1.302659
 H         4.374655        -2.740152        -0.929553
 H         4.070357        -2.911314         0.922800
 H         2.730847        -3.048766        -0.175900
 H        -0.216488        -0.654209        -0.957397
 H        -0.502767        -0.163585         0.746671
 H        -0.317778         1.056529        -0.541565
 H         2.057536         1.830788        -0.889008
 H         1.570986         2.117502         0.820288
 H         4.629089         0.087240         1.420242
 H         2.189972        -1.065550         2.287058
