19
Iteration:  3925charge 0 multiplicity 1
 C         3.593765        -2.606314         0.254374
 C         3.187295        -1.165639         0.212041
 O         2.491074        -0.638793        -1.034242
 C         1.584817         0.248680        -0.169003
 C         0.187974         0.213858        -0.398010
 C         2.264656         1.549430        -0.054475
 O         3.591192         1.159065         0.448680
 C         3.510632        -0.032210         1.088422
 C         2.134899        -0.552973         1.185977
 H         2.952795        -3.242983        -0.287760
 H         4.647282        -2.940698         0.005736
 H         3.462329        -2.724345         1.315629
 H        -0.063365        -0.591493        -1.011094
 H        -0.295698        -0.039753         0.571257
 H        -0.140158         1.209674        -0.776969
 H         2.285095         2.103390        -0.969036
 H         1.668895         2.117627         0.685778
 H         4.183653        -0.222752         1.876899
 H         1.473534        -1.253140         1.632061
