19
Iteration:  3146charge 0 multiplicity 1
 C         3.693724        -2.612042         0.145120
 C         3.081595        -1.224955         0.178412
 O         2.612991        -0.460747        -1.057021
 C         1.598182         0.181733        -0.132274
 C         0.127959         0.130744        -0.431329
 C         2.309090         1.570053         0.039155
 O         3.566341         1.224131         0.611741
 C         3.496149        -0.049971         1.172042
 C         2.043703        -0.626799         0.982021
 H         2.851102        -3.324480        -0.124696
 H         4.482329        -2.667670        -0.553403
 H         3.989305        -2.974580         1.118713
 H        -0.334333         0.751832        -1.137944
 H        -0.304633        -0.836374        -0.581241
 H        -0.252564         0.384405         0.545332
 H         2.399057         1.831148        -0.972347
 H         1.668886         2.126792         0.715811
 H         4.083673        -0.136705         2.052987
 H         1.404880        -1.189037         1.732733
