19
Iteration:  1005
 C         3.862691        -2.489247        -0.058127
 C         3.191423        -1.174034         0.239630
 O         2.144861        -1.060404        -0.758311
 C         1.523994         0.097177         0.130650
 C         0.060738         0.306530         0.180302
 C         2.083732         1.408178        -0.286672
 O         3.539407         1.331738         0.008170
 C         3.738592         0.227857         0.854959
 C         2.429320        -0.478577         1.303614
 H         4.721526        -2.567475         0.556191
 H         3.202459        -3.419662         0.176886
 H         4.093820        -2.619463        -1.149428
 H        -0.336348         1.029858        -0.577162
 H        -0.637926        -0.465827        -0.104932
 H        -0.225525         0.639881         1.189013
 H         1.933963         1.599075        -1.392648
 H         1.558717         2.182422         0.316092
 H         4.743159        -0.018053         1.460239
 H         2.356434        -0.889982         2.260856
