19
Iteration:  3135charge 0 multiplicity 1
 C         3.683321        -2.522475         0.160041
 C         3.119938        -1.171573         0.101665
 O         2.550801        -0.567439        -1.033292
 C         1.595953         0.240361        -0.108224
 C         0.119918         0.143745        -0.478196
 C         2.261806         1.539950         0.016525
 O         3.596879         1.225074         0.652830
 C         3.449193        -0.149963         1.095610
 C         2.091646        -0.620373         1.132261
 H         2.944455        -3.337864        -0.103544
 H         4.461785        -2.599003        -0.572944
 H         4.179485        -2.706401         1.110521
 H        -0.071945         0.951902        -1.130544
 H        -0.039919        -0.808895        -0.944725
 H        -0.518459         0.261273         0.367000
 H         2.541970         2.064341        -0.852755
 H         1.737430         2.323574         0.569092
 H         4.139479        -0.388562         1.864670
 H         1.456959        -1.199725         1.859051
