19
Iteration:  1371charge 0 multiplicity 1
 C         3.789848        -2.494694        -0.027984
 C         3.205476        -1.145070         0.217581
 O         2.155595        -0.954380        -0.748701
 C         1.524006         0.104940         0.224483
 C         0.040198         0.162417         0.063768
 C         2.154496         1.390934        -0.271048
 O         3.501395         1.310930         0.034295
 C         3.777885         0.136464         0.739408
 C         2.417814        -0.389797         1.406947
 H         4.840889        -2.558030         0.342855
 H         3.226881        -3.284834         0.396821
 H         3.761486        -2.813688        -1.105719
 H        -0.363025        -0.166112        -0.869545
 H        -0.473321        -0.393181         0.812511
 H        -0.285872         1.199284         0.238916
 H         1.930631         1.503479        -1.319883
 H         1.722540         2.317087         0.130606
 H         4.793945         0.293360         1.191762
 H         2.459936        -0.398114         2.483036
