19
Iteration:  3755
 C         3.671013        -2.701309         0.018988
 C         3.054158        -1.255400         0.261794
 O         2.446202        -0.615741        -0.926065
 C         1.603445         0.264608        -0.091999
 C         0.115017         0.115483        -0.465553
 C         2.335112         1.594696        -0.032930
 O         3.596994         1.288111         0.527185
 C         3.549418         0.015571         1.144258
 C         2.121832        -0.571154         1.165124
 H         3.134980        -3.271005        -0.775969
 H         4.649344        -2.531175        -0.388883
 H         3.842353        -3.236433         0.918268
 H        -0.421277         0.826774         0.176800
 H         0.106153         0.425928        -1.559527
 H        -0.277053        -0.910167        -0.269829
 H         2.521507         1.979656        -1.105434
 H         1.811555         2.263216         0.682106
 H         4.200538        -0.287821         1.942744
 H         1.393763        -0.965837         1.884638
