19
Iteration:   813
 C         3.989379        -2.402822        -0.056306
 C         3.085604        -1.241496         0.241249
 O         2.186938        -0.865829        -0.852423
 C         1.468362         0.111960         0.173311
 C        -0.057316         0.234881         0.316069
 C         2.151788         1.440913        -0.310300
 O         3.647368         1.220457        -0.039973
 C         3.699462         0.090562         0.814156
 C         2.315047        -0.478779         1.370423
 H         4.748385        -2.518459         0.740455
 H         3.357429        -3.285411        -0.396166
 H         4.430539        -2.210375        -1.080244
 H        -0.495346         0.636466        -0.618146
 H        -0.643487        -0.726045         0.371756
 H        -0.148700         0.867057         1.169981
 H         1.971857         1.664985        -1.347089
 H         1.843803         2.310994         0.252893
 H         4.716621        -0.263775         1.300565
 H         2.085534        -0.626807         2.403681
