19
Iteration:   337charge 0 multiplicity 1
 C         3.422847        -2.685123         0.150412
 C         3.226618        -1.170208         0.100567
 O         2.332074        -0.639251        -0.896445
 C         1.573590         0.121751         0.082600
 C         0.144062        -0.236692         0.191644
 C         2.072790         1.523905        -0.065452
 O         3.550390         1.373022        -0.029852
 C         3.786939         0.194457         0.695292
 C         2.519284        -0.313696         1.284655
 H         4.002007        -3.053939         1.042250
 H         2.417340        -3.039174         0.267958
 H         3.813532        -3.021126        -0.828848
 H        -0.569397         0.447742        -0.333942
 H         0.017295        -1.298021        -0.105194
 H        -0.307752        -0.114000         1.209546
 H         1.788545         2.030957        -0.989870
 H         1.895418         2.201810         0.744704
 H         4.630298         0.178986         1.297944
 H         2.297176        -0.679910         2.328731
