19
Iteration:    47
 C         3.949113        -2.259936        -0.158899
 C         3.081190        -1.151193         0.258813
 O         2.060812        -0.994771        -0.742178
 C         1.452624         0.077901         0.140264
 C        -0.057906         0.234886         0.140168
 C         2.359082         1.370117        -0.346652
 O         3.713216         1.214889         0.120990
 C         3.667101         0.098978         0.860438
 C         2.275359        -0.433245         1.331394
 H         4.876368        -2.204376         0.533058
 H         3.570494        -3.327892        -0.150026
 H         4.241966        -1.925914        -1.099437
 H        -0.467932         1.219722         0.207129
 H        -0.520599        -0.259716        -0.736176
 H        -0.486780        -0.258454         1.047748
 H         2.314648         1.429355        -1.425984
 H         1.908956         2.277757         0.106063
 H         4.542504        -0.071993         1.573274
 H         1.959242        -1.066921         2.286848
