19
Iteration:  4674
 C         3.636255        -2.575360        -0.207924
 C         3.121869        -1.161863         0.212682
 O         2.538708        -0.505355        -0.960380
 C         1.558305         0.188750         0.008568
 C         0.133127         0.071921        -0.558461
 C         2.270266         1.508933         0.068048
 O         3.600882         1.269969         0.682325
 C         3.489802        -0.026760         1.177669
 C         2.133953        -0.658239         1.265833
 H         2.639765        -3.011799        -0.576146
 H         4.121132        -2.570673        -1.179263
 H         4.169030        -3.155422         0.530432
 H        -0.745984         0.194914         0.085135
 H         0.141814         0.781482        -1.567284
 H         0.130858        -0.893090        -1.079604
 H         2.623107         1.899118        -0.888436
 H         1.679721         2.318606         0.569330
 H         4.262787        -0.311468         1.911857
 H         1.677620        -1.051072         2.177398
