19
Iteration:  1702charge 0 multiplicity 1
 C         3.693913        -2.584810        -0.066696
 C         3.207304        -1.135778         0.064483
 O         2.273646        -0.730335        -0.973584
 C         1.547630         0.052501         0.092674
 C         0.014764         0.062383        -0.161146
 C         2.166900         1.496608         0.159603
 O         3.568432         1.386093         0.317002
 C         3.730884         0.116033         0.832320
 C         2.393477        -0.541373         1.314431
 H         4.377298        -2.809808        -0.882962
 H         3.997436        -2.919616         0.970185
 H         2.722016        -3.029698        -0.220285
 H        -0.200979        -0.648922        -0.952996
 H        -0.572913        -0.194233         0.695404
 H        -0.313832         1.017479        -0.528431
 H         2.056554         1.882247        -0.893589
 H         1.609857         2.210440         0.872723
 H         4.638093         0.086387         1.466474
 H         2.207836        -1.074036         2.256937
