19
Iteration:   484
 C         3.863653        -2.521533         0.053622
 C         3.042457        -1.193403         0.112802
 O         2.083631        -0.794173        -0.866897
 C         1.600713         0.179356         0.146569
 C         0.115624         0.027743         0.304881
 C         2.248425         1.502096        -0.294998
 O         3.603646         1.289258         0.054664
 C         3.675718         0.036460         0.731009
 C         2.317259        -0.363678         1.317607
 H         4.336317        -2.542210         0.960922
 H         3.364863        -3.408350        -0.383141
 H         4.584232        -2.373330        -0.685518
 H        -0.485445         0.498132        -0.482032
 H        -0.086307        -1.024549         0.175804
 H        -0.388787         0.169648         1.252362
 H         1.861082         1.719667        -1.267703
 H         1.951310         2.221884         0.431489
 H         4.645331        -0.066364         1.316473
 H         1.897367        -0.524689         2.317023
