19
Iteration:  4933
 C         3.938137        -2.305758        -0.368348
 C         3.027020        -1.264606         0.186697
 O         2.396988        -0.607539        -0.986846
 C         1.590893         0.120747        -0.076267
 C         0.175292         0.271024        -0.461686
 C         2.347365         1.460939         0.154661
 O         3.548098         1.164430         0.853754
 C         3.400915        -0.109360         1.205949
 C         2.057218        -0.665283         1.110062
 H         3.395105        -2.758271        -1.257458
 H         5.001378        -1.955684        -0.645057
 H         4.174110        -3.122001         0.335713
 H        -0.571789        -0.318246         0.105382
 H        -0.069540         1.300662        -0.594085
 H         0.024364        -0.291716        -1.411689
 H         2.611291         1.960408        -0.804100
 H         1.667758         2.196752         0.607112
 H         3.898796        -0.266522         2.136584
 H         1.352926        -1.157912         1.776053
