19
Iteration:  3942
 C         3.662799        -2.610197         0.333621
 C         3.057450        -1.214633         0.153609
 O         2.523665        -0.599715        -1.051828
 C         1.609432         0.186757        -0.120000
 C         0.022232         0.204450        -0.385761
 C         2.353054         1.550292        -0.031483
 O         3.623232         1.238009         0.496028
 C         3.528760        -0.087796         1.066940
 C         2.116524        -0.587359         1.045600
 H         3.217576        -3.383459        -0.425340
 H         4.678241        -2.593013        -0.019629
 H         3.642616        -2.830808         1.471854
 H        -0.391418        -0.620015        -1.122317
 H        -0.537513         0.167521         0.537048
 H        -0.319340         1.153772        -0.811791
 H         2.550972         1.883749        -1.096273
 H         1.853294         2.251463         0.689771
 H         4.223184        -0.304536         1.962693
 H         1.586740        -0.640637         2.060884
