19
Iteration:  2226
 C         3.698196        -2.546317        -0.201793
 C         3.162003        -1.160500         0.010200
 O         2.603948        -0.355462        -1.052086
 C         1.627734         0.252077        -0.134267
 C         0.120560         0.024297        -0.431022
 C         2.179644         1.533663         0.410764
 O         3.526756         1.233424         0.703791
 C         3.459074        -0.175641         1.188095
 C         2.138183        -0.667027         1.016206
 H         3.975198        -2.651968        -1.280991
 H         4.561536        -2.721519         0.450466
 H         2.934461        -3.320832        -0.030671
 H        -0.188096         0.468113        -1.384415
 H         0.114291        -1.074898        -0.545456
 H        -0.553912         0.317378         0.391797
 H         2.110503         2.237622        -0.388963
 H         1.699656         1.902686         1.333082
 H         4.042018        -0.468045         2.000956
 H         1.646983        -1.252467         1.842246
