19
Iteration:  1832
 C         3.678566        -2.580287        -0.115893
 C         3.168720        -1.123690         0.070446
 O         2.347460        -0.667186        -0.910985
 C         1.519417         0.162398         0.141280
 C         0.074805         0.093542        -0.293391
 C         2.096997         1.477058         0.205136
 O         3.567078         1.377581         0.402544
 C         3.727754         0.050816         0.858441
 C         2.366566        -0.658127         1.204216
 H         3.439513        -3.282923         0.660541
 H         3.103929        -3.022694        -0.985583
 H         4.765199        -2.613045        -0.203597
 H        -0.581838        -0.510533         0.362177
 H        -0.244137         1.143912        -0.243420
 H         0.129119        -0.207832        -1.335340
 H         1.953904         2.134580        -0.666980
 H         1.635042         1.846656         1.075443
 H         4.494458        -0.106960         1.570514
 H         2.130303        -1.205627         2.169531
