19
Iteration:  4369
 C         3.863464        -2.515155         0.109856
 C         3.138856        -1.233065         0.272626
 O         2.414292        -0.749238        -0.992857
 C         1.526575         0.175131        -0.157254
 C         0.035488         0.299510        -0.441479
 C         2.320713         1.502206        -0.105525
 O         3.658827         1.188999         0.580418
 C         3.503762        -0.119430         1.181021
 C         2.006714        -0.473804         1.111545
 H         3.313607        -3.175924        -0.600957
 H         4.767070        -2.373656        -0.387475
 H         4.043211        -2.937206         1.088356
 H        -0.507109         0.204349         0.466030
 H        -0.216657         1.312053        -0.802722
 H        -0.331151        -0.347858        -1.240577
 H         2.588342         2.111144        -0.958542
 H         1.839388         2.135015         0.610024
 H         4.277654        -0.306378         1.897329
 H         1.361047        -0.696387         1.992947
