19
Iteration:  2142charge 0 multiplicity 1
 C         3.998257        -2.329074        -0.273812
 C         3.090750        -1.210454         0.088015
 O         2.360935        -0.642362        -1.022485
 C         1.546570         0.152219        -0.053614
 C         0.125152         0.269379        -0.376268
 C         2.257131         1.514197         0.142034
 O         3.548716         1.169346         0.775165
 C         3.521516        -0.183792         1.119931
 C         2.038001        -0.707111         1.146933
 H         4.955119        -2.072920         0.220691
 H         3.688880        -3.269293         0.073501
 H         4.072877        -2.491301        -1.349483
 H        -0.352155         1.154056         0.095845
 H        -0.010346         0.515309        -1.457760
 H        -0.490709        -0.592575        -0.181401
 H         2.276988         1.943769        -0.917472
 H         1.792002         2.225195         0.867510
 H         4.018196        -0.452360         2.032267
 H         1.612919        -0.869815         2.175673
