19
Iteration:  2373
 C         3.738924        -2.530823        -0.203331
 C         3.142484        -1.255720         0.121645
 O         2.547744        -0.458208        -1.041941
 C         1.575881         0.207448        -0.054491
 C         0.132258         0.158545        -0.547462
 C         2.150179         1.569932         0.303845
 O         3.555333         1.235874         0.765800
 C         3.533627        -0.119125         1.132534
 C         2.119433        -0.724283         1.092797
 H         3.012489        -3.279013        -0.070696
 H         4.005295        -2.522853        -1.287592
 H         4.643700        -2.743472         0.360669
 H        -0.206157         1.141120        -0.971515
 H         0.074785        -0.651518        -1.324144
 H        -0.508555        -0.057304         0.380015
 H         2.114207         2.207912        -0.647966
 H         1.649749         2.004992         1.170846
 H         4.227771        -0.248121         1.954217
 H         1.679791        -1.364903         1.829577
