19
Iteration:  3720
 C         3.513788        -2.567213         0.013038
 C         3.098938        -1.090724         0.189917
 O         2.543023        -0.585013        -1.036679
 C         1.604561         0.218103        -0.071372
 C         0.135643         0.003533        -0.395249
 C         2.376970         1.524691         0.031579
 O         3.640025         1.184359         0.538674
 C         3.522905        -0.014822         1.229658
 C         2.104894        -0.484345         1.134314
 H         2.759688        -3.101739        -0.486509
 H         4.554048        -2.522995        -0.483437
 H         3.604055        -3.129782         0.910849
 H        -0.532256         0.821486        -0.580987
 H         0.098269        -0.514263        -1.451084
 H        -0.440595        -0.771474         0.185379
 H         2.373598         2.042392        -0.994646
 H         1.685183         2.197685         0.585906
 H         4.394161        -0.192218         1.934010
 H         1.345611        -0.886925         1.883512
