19
Iteration:   962charge 0 multiplicity 1
 C         3.756676        -2.503258         0.057669
 C         3.010184        -1.223873         0.179561
 O         2.131898        -0.736452        -0.855759
 C         1.548741         0.284382         0.180927
 C         0.105152        -0.141710         0.159509
 C         2.203153         1.602177        -0.212035
 O         3.611029         1.261678        -0.023386
 C         3.742137        -0.002305         0.769306
 C         2.421753        -0.319597         1.368347
 H         4.772644        -2.457969         0.241188
 H         3.250386        -3.335488         0.645144
 H         3.728683        -2.618988        -1.017457
 H        -0.234784        -0.420794        -0.894994
 H         0.153837        -1.128229         0.631590
 H        -0.616798         0.476480         0.737356
 H         1.950430         1.705371        -1.295843
 H         1.854288         2.397351         0.364933
 H         4.742593        -0.065757         1.416184
 H         2.101613        -0.703468         2.299242
