19
Iteration:  4643charge 0 multiplicity 1
 C         3.585365        -2.583763        -0.035412
 C         3.114688        -1.152594         0.124136
 O         2.553706        -0.485053        -0.983306
 C         1.654761         0.226391        -0.123035
 C         0.221872         0.000350        -0.484933
 C         2.242551         1.576538         0.164969
 O         3.554940         1.262724         0.693422
 C         3.512415        -0.109286         1.086556
 C         2.096125        -0.583052         1.089479
 H         2.593361        -3.248281         0.059837
 H         3.911634        -2.803835        -1.049939
 H         4.246973        -2.986345         0.717381
 H        -0.463319        -0.571775         0.124373
 H        -0.261583         1.039306        -0.629235
 H         0.211199        -0.655634        -1.324526
 H         2.633614         2.162272        -0.670133
 H         1.666040         2.114880         0.887761
 H         4.157408        -0.353962         1.913405
 H         1.492411        -1.027444         1.865977
