19
Iteration:   513charge 0 multiplicity 1
 C         3.543161        -2.589402         0.201892
 C         3.213173        -1.131188         0.082817
 O         2.268553        -0.722814        -0.921608
 C         1.573908         0.108235         0.130913
 C        -0.030077        -0.065998         0.226506
 C         2.144303         1.537336        -0.071637
 O         3.523859         1.320584        -0.030757
 C         3.838976         0.143453         0.695838
 C         2.522405        -0.450188         1.197481
 H         4.249943        -2.692700         1.138678
 H         2.655149        -3.250230         0.270088
 H         4.174347        -2.879593        -0.699718
 H        -0.600838         0.228919        -0.668145
 H        -0.295963        -1.139310         0.321280
 H        -0.418503         0.433263         1.143197
 H         1.837619         2.056532        -1.057831
 H         1.951299         2.251400         0.819219
 H         4.768536         0.322070         1.366028
 H         2.380672        -0.922598         2.127170
