19
Iteration:   738
 C         3.517801        -2.613400         0.138004
 C         3.220411        -1.158814         0.038535
 O         2.206275        -0.629317        -0.884653
 C         1.590002         0.171896         0.098591
 C         0.088740        -0.282760         0.231893
 C         2.119120         1.612087        -0.091799
 O         3.616973         1.330878        -0.005835
 C         3.748089         0.096121         0.742594
 C         2.506911        -0.359181         1.267582
 H         4.484179        -2.848014         0.634606
 H         2.656168        -3.099927         0.576738
 H         3.518683        -2.976178        -0.929425
 H        -0.355372        -0.263825        -0.790039
 H         0.047484        -1.227315         0.873316
 H        -0.574674         0.457657         0.712724
 H         1.919114         2.099528        -1.055622
 H         1.668160         2.231888         0.707424
 H         4.784425         0.072054         1.272513
 H         2.240702        -0.657257         2.233233
