19
Iteration:   655charge 0 multiplicity 1
 C         3.992696        -2.396195         0.003354
 C         3.061114        -1.251945         0.149654
 O         1.971653        -0.939241        -0.789569
 C         1.502080         0.020871         0.198002
 C         0.013391         0.298166         0.223990
 C         2.209782         1.368062        -0.270988
 O         3.560318         1.403080         0.085131
 C         3.762929         0.150124         0.650733
 C         2.475665        -0.571535         1.331585
 H         4.307589        -2.785492         1.034038
 H         3.461077        -3.242950        -0.441829
 H         4.891542        -2.081101        -0.551694
 H        -0.232963         1.094683        -0.469302
 H        -0.705462        -0.359843        -0.199324
 H        -0.134724         0.558998         1.286090
 H         1.964227         1.430026        -1.354980
 H         1.701887         2.086978         0.291476
 H         4.808034         0.083575         1.034137
 H         2.251234        -1.029289         2.310794
