19
Iteration:  2665
 C         3.927084        -2.439004        -0.131178
 C         3.130165        -1.218736         0.090548
 O         2.468968        -0.574660        -1.001919
 C         1.514857         0.161250        -0.015362
 C         0.137849         0.278273        -0.503643
 C         2.262619         1.549863         0.124695
 O         3.515084         1.193270         0.656807
 C         3.458767        -0.189050         1.136294
 C         2.069566        -0.696089         1.216260
 H         3.381698        -3.025067        -0.926120
 H         4.921798        -2.167384        -0.469805
 H         3.865058        -3.008080         0.786762
 H        -0.038530         0.986920        -1.336104
 H        -0.019801        -0.723573        -0.995064
 H        -0.532421         0.460065         0.381505
 H         2.374584         2.138069        -0.741952
 H         1.827340         2.288629         0.827334
 H         4.101168        -0.478800         2.016906
 H         1.413146        -1.133781         2.085883
