19
Iteration:  4242
 C         3.566708        -2.612369         0.091361
 C         3.135491        -1.149819         0.188130
 O         2.445407        -0.629070        -0.953273
 C         1.604985         0.251925        -0.031246
 C         0.169554         0.046371        -0.544587
 C         2.344047         1.592914         0.001037
 O         3.629893         1.265022         0.564969
 C         3.580818         0.022269         1.132610
 C         2.051419        -0.597227         1.140140
 H         2.664435        -3.189929         0.227889
 H         3.898717        -2.738692        -1.019271
 H         4.312880        -3.049143         0.707146
 H        -0.492675         0.112262         0.285205
 H        -0.141364         0.679607        -1.430881
 H        -0.074528        -0.986536        -0.756336
 H         2.499269         1.884783        -1.038377
 H         1.833424         2.391436         0.641818
 H         4.258945        -0.182481         1.951025
 H         1.657129        -1.141264         2.033779
