19
Iteration:  4926
 C         3.956730        -2.320186        -0.304419
 C         3.086237        -1.216914         0.172704
 O         2.359365        -0.588832        -1.018332
 C         1.593792         0.138375        -0.029839
 C         0.169883         0.276065        -0.499221
 C         2.311545         1.503010         0.088243
 O         3.506885         1.166396         0.847035
 C         3.512635        -0.183169         1.198728
 C         2.002762        -0.716825         1.143018
 H         3.478156        -2.794453        -1.266695
 H         4.924123        -2.002258        -0.684488
 H         4.032054        -3.052149         0.511822
 H        -0.565311        -0.245563         0.136253
 H        -0.280875         1.433674        -0.444502
 H         0.229754        -0.135043        -1.500171
 H         2.590945         2.014487        -0.851016
 H         1.770587         2.175518         0.791929
 H         4.042171        -0.482670         2.132598
 H         1.361346        -1.326375         1.812932
