19
Iteration:   301charge 0 multiplicity 1
 C         3.690718        -2.603485         0.064709
 C         3.127450        -1.118752         0.128148
 O         2.129173        -0.805443        -0.825205
 C         1.554482         0.073393         0.227303
 C         0.058907        -0.035138         0.174805
 C         2.127049         1.489142        -0.192780
 O         3.603884         1.399795         0.045671
 C         3.754906         0.114287         0.640785
 C         2.519918        -0.331652         1.342664
 H         4.138226        -2.992679         0.938347
 H         2.897047        -3.274774        -0.215688
 H         4.501578        -2.746967        -0.725972
 H        -0.317638         0.783177        -0.468989
 H        -0.199405        -0.830972        -0.529053
 H        -0.341159        -0.204810         1.154930
 H         1.964061         1.590044        -1.283570
 H         1.704342         2.288360         0.415709
 H         4.667977         0.047862         1.337054
 H         2.300761        -0.620791         2.325367
