19
Iteration:  3329charge 0 multiplicity 1
 C         3.588839        -2.592566        -0.021091
 C         3.137111        -1.190951         0.170713
 O         2.407811        -0.731487        -0.981640
 C         1.582535         0.134613        -0.103686
 C         0.141267         0.087614        -0.597697
 C         2.340756         1.588989         0.074482
 O         3.615769         1.371077         0.715363
 C         3.492549         0.037098         1.170248
 C         2.216426        -0.591755         1.158311
 H         2.620986        -3.139223        -0.273745
 H         4.397971        -2.552687        -0.763314
 H         3.862561        -3.103039         0.932445
 H         0.290638         0.637067        -1.554382
 H        -0.143896        -0.976335        -0.722018
 H        -0.514303         0.713638         0.087058
 H         2.506573         2.035242        -0.970083
 H         1.760349         2.242378         0.729545
 H         4.374640        -0.167735         1.801886
 H         1.528029        -1.001520         1.901012
