19
Iteration:  2693charge 0 multiplicity 1
 C         3.993647        -2.331145        -0.181370
 C         3.037533        -1.302268         0.236418
 O         2.512854        -0.562438        -0.942683
 C         1.501788         0.164696        -0.138562
 C         0.028462         0.231839        -0.397245
 C         2.356015         1.501398         0.049890
 O         3.648183         1.140431         0.600690
 C         3.416578        -0.192470         1.249898
 C         1.948948        -0.618983         1.104380
 H         3.453139        -3.019320        -0.791088
 H         4.737472        -1.714733        -0.758706
 H         4.375711        -2.886465         0.692491
 H        -0.287237         1.259530        -0.611529
 H        -0.125104        -0.419489        -1.297315
 H        -0.497183        -0.163151         0.426691
 H         2.541704         2.151296        -0.903968
 H         1.917524         2.153808         0.839581
 H         3.775524        -0.395001         2.213531
 H         1.190060        -1.062927         1.701088
