19
Iteration:  3991
 C         3.730124        -2.497612         0.020554
 C         3.033561        -1.190117         0.284760
 O         2.394411        -0.754568        -0.905214
 C         1.587738         0.118621        -0.062746
 C         0.180675         0.272567        -0.549344
 C         2.348654         1.445251        -0.112185
 O         3.677856         1.253991         0.553763
 C         3.496073        -0.013724         1.148715
 C         2.021072        -0.541283         1.242174
 H         3.014994        -3.157601        -0.388993
 H         4.375488        -2.435855        -0.902486
 H         4.253214        -2.816478         0.883079
 H        -0.266416        -0.685975        -0.469052
 H        -0.475476         0.956006         0.070297
 H         0.165501         0.595570        -1.619325
 H         2.549855         1.723436        -1.149987
 H         1.801101         2.215405         0.500656
 H         4.144659        -0.128687         2.003142
 H         1.558309        -0.790943         2.155434
