19
Iteration:  4238charge 0 multiplicity 1
 C         3.586036        -2.585956         0.107647
 C         3.126807        -1.166736         0.176372
 O         2.402910        -0.616305        -0.972734
 C         1.627714         0.237500        -0.059365
 C         0.185333         0.057707        -0.538482
 C         2.316844         1.552653         0.019228
 O         3.631030         1.264400         0.580474
 C         3.559463        -0.018275         1.133089
 C         2.108056        -0.598454         1.111138
 H         2.608227        -3.129336         0.290694
 H         3.937610        -2.676453        -0.862735
 H         4.353909        -3.044508         0.773674
 H        -0.494566         0.392719         0.302634
 H        -0.119292         0.697083        -1.395435
 H        -0.034084        -1.014252        -0.729074
 H         2.475220         1.953304        -1.008570
 H         1.738175         2.370092         0.568280
 H         4.266878        -0.148872         1.998077
 H         1.658676        -0.911319         2.058743
