19
Iteration:  1161
 C         3.876098        -2.566749         0.170517
 C         3.119828        -1.220162         0.183775
 O         2.137072        -0.874723        -0.855492
 C         1.469293         0.179077         0.121734
 C        -0.003468         0.081336         0.250306
 C         2.202351         1.502673        -0.187601
 O         3.567492         1.368161        -0.007572
 C         3.767133         0.055039         0.691532
 C         2.409625        -0.424145         1.154383
 H         4.860090        -2.185831         0.517338
 H         3.450495        -3.248455         0.884256
 H         3.915443        -3.053163        -0.781488
 H        -0.402065        -0.103744        -0.757836
 H        -0.174566        -0.807021         0.901198
 H        -0.458945         1.018776         0.602693
 H         1.946863         1.848481        -1.203593
 H         1.855117         2.372431         0.499881
 H         4.657869        -0.014516         1.354641
 H         2.029232        -0.416338         2.268692
