19
Iteration:  1854
 C         3.614180        -2.583751        -0.105131
 C         3.231804        -1.143981         0.090727
 O         2.346500        -0.543037        -1.048077
 C         1.610252         0.149243         0.024048
 C         0.117462        -0.039423        -0.211853
 C         2.103906         1.577561         0.231873
 O         3.567632         1.303571         0.362438
 C         3.652934         0.010105         0.991671
 C         2.337532        -0.617245         1.230042
 H         3.809432        -3.033790         0.860358
 H         2.675791        -3.104689        -0.437912
 H         4.538057        -2.683700        -0.663245
 H        -0.306732        -0.874819         0.393846
 H        -0.399439         0.893887         0.070948
 H         0.000636        -0.206772        -1.288458
 H         2.161202         2.178729        -0.663451
 H         1.653531         2.069417         1.047341
 H         4.519243        -0.119087         1.576877
 H         1.760244        -0.914908         2.161213
