19
Iteration:   808charge 0 multiplicity 1
 C         3.964604        -2.451410        -0.042863
 C         3.107052        -1.220793         0.221424
 O         2.184096        -0.878508        -0.862980
 C         1.462617         0.091998         0.212153
 C        -0.062960         0.224813         0.276170
 C         2.188124         1.425215        -0.280378
 O         3.621547         1.284692        -0.033806
 C         3.682842         0.099134         0.810172
 C         2.385484        -0.486306         1.339319
 H         4.792319        -2.621868         0.646580
 H         3.337615        -3.359368        -0.187378
 H         4.345616        -2.262430        -1.031115
 H        -0.410479         0.725484        -0.641551
 H        -0.603281        -0.668150         0.550253
 H        -0.338910         1.010794         1.064339
 H         1.874637         1.629820        -1.346700
 H         1.883507         2.336565         0.364952
 H         4.568937        -0.224981         1.225996
 H         1.972781        -0.670877         2.372178
