19
Iteration:  2690charge 0 multiplicity 1
 C         4.007258        -2.343924        -0.188616
 C         3.037301        -1.269553         0.251114
 O         2.498945        -0.543986        -0.928856
 C         1.544762         0.160664        -0.125131
 C         0.016853         0.221640        -0.416117
 C         2.358772         1.488033         0.057317
 O         3.637632         1.130688         0.589856
 C         3.422267        -0.184019         1.254194
 C         1.933188        -0.617699         1.077557
 H         3.439687        -3.051332        -0.849907
 H         4.834748        -1.788846        -0.769413
 H         4.342862        -2.938749         0.729566
 H        -0.283425         1.227596        -0.688543
 H        -0.200896        -0.353381        -1.258690
 H        -0.541896        -0.086822         0.520600
 H         2.448588         2.107015        -0.854908
 H         1.916233         2.149979         0.785326
 H         3.815404        -0.494176         2.248541
 H         1.252564        -1.030721         1.756704
