19
Iteration:  2116
 C         4.004456        -2.371179        -0.150648
 C         3.076913        -1.218856         0.116562
 O         2.430665        -0.550204        -1.001916
 C         1.514915         0.210486        -0.004503
 C         0.066319         0.290588        -0.356887
 C         2.281720         1.527324         0.140369
 O         3.592974         1.148109         0.552217
 C         3.516580        -0.167995         1.133807
 C         1.980466        -0.805824         1.158030
 H         4.800172        -2.468052         0.540785
 H         3.604069        -3.326274        -0.518663
 H         4.461434        -1.996255        -1.074939
 H        -0.576858         0.481791         0.502995
 H        -0.261654         1.038838        -1.082987
 H        -0.222200        -0.729341        -0.769812
 H         2.154306         2.023039        -0.796412
 H         1.882123         2.046227         0.985508
 H         4.080771        -0.333144         2.100278
 H         1.452951        -1.286135         1.983344
