19
Iteration:  4744
 C         3.915503        -2.360778         0.090492
 C         3.067355        -1.216650         0.035617
 O         2.437390        -0.491719        -1.093794
 C         1.581349         0.167280        -0.103092
 C         0.109174         0.356073        -0.391291
 C         2.219151         1.527613         0.146940
 O         3.550447         1.086685         0.637948
 C         3.443249        -0.246301         1.113356
 C         2.121124        -0.770459         1.077794
 H         3.562737        -3.228710        -0.502485
 H         4.982434        -2.200109        -0.248668
 H         3.946864        -2.563382         1.198962
 H        -0.166341         1.418988        -0.703969
 H        -0.215862        -0.318132        -1.198292
 H        -0.559363         0.095309         0.500630
 H         2.370921         2.053499        -0.824659
 H         1.836928         2.228098         0.842633
 H         4.284266        -0.500831         1.799724
 H         1.715685        -1.394814         1.901147
