19
Iteration:  3386
 C         3.716283        -2.480403         0.096421
 C         3.084669        -1.176471         0.170259
 O         2.427575        -0.532823        -1.009099
 C         1.565215         0.215765        -0.073753
 C         0.117958         0.116635        -0.569205
 C         2.316749         1.505071         0.129059
 O         3.718689         1.187919         0.535759
 C         3.449983        -0.115103         1.168530
 C         2.077055        -0.582271         1.105605
 H         3.185243        -3.164895        -0.653474
 H         4.687124        -2.471670        -0.314018
 H         3.814601        -2.867600         1.082749
 H        -0.025857        -0.114207        -1.621012
 H        -0.220285        -0.846471        -0.005137
 H        -0.496544         0.911359        -0.095870
 H         2.413508         2.079158        -0.787733
 H         1.835575         2.097493         0.921287
 H         4.087543        -0.139830         2.046141
 H         1.499675        -1.163013         1.789370
