19
Iteration:  4646
 C         3.570512        -2.592774        -0.061983
 C         3.117001        -1.166370         0.139315
 O         2.543857        -0.477614        -0.944797
 C         1.657372         0.222408        -0.105781
 C         0.192437         0.002434        -0.510165
 C         2.259767         1.587093         0.159430
 O         3.547485         1.272144         0.682877
 C         3.532183        -0.114416         1.116498
 C         2.117209        -0.578277         1.070889
 H         2.669415        -3.235219        -0.019875
 H         3.889541        -2.840392        -1.091288
 H         4.247877        -2.901234         0.747500
 H        -0.506797        -0.558565         0.166076
 H        -0.220873         0.931875        -0.717852
 H         0.175233        -0.704000        -1.357019
 H         2.656304         2.138675        -0.731481
 H         1.622527         2.199613         0.855246
 H         4.147811        -0.344022         1.945813
 H         1.558457        -1.112513         1.815452
