19
Iteration:   230charge 0 multiplicity 1
 C         4.052511        -2.367367        -0.091983
 C         3.083355        -1.278600         0.240131
 O         2.073877        -0.955189        -0.821107
 C         1.511945         0.148205         0.128230
 C         0.003744         0.296057         0.211542
 C         2.202681         1.493143        -0.244680
 O         3.548804         1.234189         0.067012
 C         3.654084        -0.015506         0.787453
 C         2.356796        -0.463910         1.329544
 H         4.998086        -2.218365         0.540689
 H         3.758574        -3.443274        -0.102587
 H         4.336519        -2.147978        -1.110673
 H        -0.353782         0.337394        -0.822536
 H        -0.490736        -0.512898         0.771330
 H        -0.087469         1.217853         0.812093
 H         2.080573         1.696819        -1.328740
 H         1.835990         2.358784         0.386782
 H         4.535672         0.073480         1.379252
 H         2.076807        -0.989589         2.321329
