19
Iteration:    25charge 0 multiplicity 1
 C         4.020327        -2.409126        -0.032771
 C         2.992999        -1.273785         0.168286
 O         1.982192        -0.850417        -0.788633
 C         1.542729         0.240476         0.139240
 C         0.004054         0.051917         0.145015
 C         2.311194         1.527010        -0.319272
 O         3.673848         1.261310         0.118016
 C         3.642468        -0.056439         0.795710
 C         2.335311        -0.368312         1.352985
 H         4.911689        -2.372989         0.713633
 H         3.582459        -3.455357         0.080139
 H         4.372942        -2.240779        -0.995998
 H        -0.511759         0.921984         0.510473
 H        -0.292306        -0.196705        -0.896609
 H        -0.341726        -0.713326         0.885829
 H         2.211441         1.574107        -1.402482
 H         1.935264         2.504084         0.079726
 H         4.601791        -0.235610         1.396255
 H         1.881998        -0.311820         2.474125
