19
Iteration:  2107
 C         3.953869        -2.358427        -0.201861
 C         3.079016        -1.235404         0.204539
 O         2.456806        -0.550771        -0.997506
 C         1.528067         0.194976         0.019572
 C         0.027446         0.244186        -0.363697
 C         2.230867         1.543800         0.200625
 O         3.617092         1.136926         0.544101
 C         3.515907        -0.140426         1.072204
 C         2.031837        -0.781683         1.070019
 H         4.429545        -2.645640         0.746444
 H         3.421464        -3.213066        -0.437010
 H         4.778254        -2.092698        -0.778517
 H        -0.542934         0.195552         0.566619
 H        -0.161944         1.162765        -0.945728
 H        -0.225817        -0.619769        -1.031529
 H         2.267370         2.027020        -0.808678
 H         1.793626         2.253743         0.949109
 H         3.991701        -0.410653         1.998475
 H         1.712135        -1.049557         2.090737
