19
Iteration:  4398
 C         3.709764        -2.511070        -0.023704
 C         2.983953        -1.254104         0.308874
 O         2.453160        -0.625288        -0.864601
 C         1.567727         0.248350        -0.009595
 C         0.211942         0.122025        -0.530624
 C         2.401416         1.487144        -0.120872
 O         3.658886         1.252447         0.511665
 C         3.477067        -0.059769         1.165105
 C         1.975899        -0.577071         1.184354
 H         2.996116        -3.242319        -0.440551
 H         4.557116        -2.174220        -0.733834
 H         4.240015        -3.009195         0.880414
 H        -0.582957         0.451435         0.252506
 H        -0.067050         0.846806        -1.266523
 H         0.201257        -0.946102        -0.879936
 H         2.419615         1.980399        -1.122827
 H         1.825163         2.311310         0.505546
 H         4.330092        -0.194469         1.861271
 H         1.406100        -0.929575         2.031100
