19
Iteration:  4949charge 0 multiplicity 1
 C         3.927585        -2.392073        -0.405622
 C         3.097212        -1.228822         0.151262
 O         2.510171        -0.635540        -0.991493
 C         1.607824         0.202402        -0.081748
 C         0.094849         0.219399        -0.497516
 C         2.318283         1.540590         0.114277
 O         3.569839         1.245687         0.827750
 C         3.396445        -0.205399         1.312004
 C         1.926319        -0.716050         1.168856
 H         3.461537        -2.778546        -1.355511
 H         4.772701        -1.876297        -0.827931
 H         4.267059        -3.161143         0.315369
 H        -0.426233         0.000068         0.434910
 H        -0.314550         1.356855        -0.682512
 H        -0.140703        -0.473052        -1.321194
 H         2.515348         2.025690        -0.850363
 H         1.776389         2.211720         0.794066
 H         4.126604        -0.646761         2.036672
 H         1.310256        -0.871900         2.067018
