19
Iteration:  4285charge 0 multiplicity 1
 C         3.540174        -2.630038        -0.012014
 C         3.129261        -1.175986         0.281977
 O         2.484269        -0.651494        -0.927027
 C         1.635192         0.237163        -0.113659
 C         0.239379         0.061685        -0.494715
 C         2.321395         1.539141        -0.001753
 O         3.602556         1.228706         0.512827
 C         3.497828        -0.018941         1.126278
 C         2.067031        -0.438016         1.199180
 H         2.683234        -3.289430         0.078805
 H         4.177326        -2.546826        -0.938577
 H         4.212519        -3.008504         0.723860
 H        -0.290203        -0.394356         0.318467
 H        -0.366219         1.000789        -0.834293
 H         0.312452        -0.784082        -1.189659
 H         2.465386         2.104603        -0.930948
 H         1.760859         2.282619         0.723288
 H         4.162899        -0.056718         1.966187
 H         1.386246        -0.845214         2.002402
