19
Iteration:  4487charge 0 multiplicity 1
 C         3.742513        -2.587487         0.153803
 C         3.146137        -1.194140         0.164658
 O         2.434222        -0.529905        -1.028976
 C         1.617505         0.178879        -0.117755
 C         0.132692         0.208474        -0.497145
 C         2.266937         1.503640         0.061948
 O         3.604183         1.220804         0.603395
 C         3.512550        -0.099700         1.133785
 C         2.084860        -0.585888         1.068348
 H         2.893832        -3.210067        -0.171003
 H         4.478282        -2.904072        -0.594473
 H         4.074208        -2.855359         1.193519
 H        -0.005003         1.162992        -1.055537
 H        -0.303208        -0.574792        -1.098098
 H        -0.465194         0.226128         0.443187
 H         2.322263         1.937733        -0.931405
 H         1.703275         2.198251         0.737307
 H         4.147848        -0.369886         1.949183
 H         1.557691        -1.150562         1.837856
