19
Iteration:  2730
 C         3.908119        -2.478628        -0.084899
 C         3.121388        -1.174063         0.074996
 O         2.320180        -0.596659        -0.981723
 C         1.571592         0.151979        -0.050621
 C         0.143338         0.236339        -0.510624
 C         2.270307         1.504573         0.051671
 O         3.585936         1.228239         0.809779
 C         3.478405        -0.161286         1.093154
 C         2.091042        -0.640018         1.156866
 H         3.309139        -3.368135        -0.328179
 H         4.582620        -2.476982        -0.888336
 H         4.603917        -2.554346         0.716167
 H        -0.418705         1.108771        -0.108593
 H         0.169803         0.332412        -1.641633
 H        -0.462089        -0.705285        -0.291724
 H         2.610144         1.907176        -0.877291
 H         1.559207         2.254126         0.568955
 H         4.170255        -0.158615         1.983009
 H         1.414408        -1.117315         1.977376
