19
Iteration:  3285
 C         3.849807        -2.625530         0.147348
 C         3.054078        -1.238216         0.115600
 O         2.555777        -0.583735        -1.078112
 C         1.634994         0.208091        -0.105177
 C         0.024513         0.283670        -0.426529
 C         2.327845         1.589235        -0.032673
 O         3.572630         1.250922         0.660806
 C         3.448427        -0.118865         1.147359
 C         1.977679        -0.660812         1.072467
 H         3.290034        -3.578833         0.437947
 H         4.529733        -2.737270        -0.726112
 H         4.566495        -2.513752         1.021032
 H        -0.405650         1.040637        -1.171788
 H        -0.403308        -0.707816        -0.711789
 H        -0.366280         0.436891         0.648343
 H         2.697750         1.747824        -1.087796
 H         1.804162         2.387721         0.444443
 H         4.075077        -0.253630         2.014700
 H         1.401977        -1.149413         1.897015
