19
Iteration:  3835charge 0 multiplicity 1
 C         3.782502        -2.545041         0.079943
 C         3.072133        -1.203296         0.299006
 O         2.456526        -0.667915        -0.954064
 C         1.653944         0.200468        -0.179329
 C         0.055909         0.252627        -0.427113
 C         2.340614         1.492676        -0.085138
 O         3.624760         1.178231         0.509258
 C         3.497584        -0.075704         1.127662
 C         2.004977        -0.521455         1.164086
 H         3.152230        -3.383482         0.465859
 H         4.163095        -2.696021        -0.887432
 H         4.613945        -2.630996         0.845528
 H        -0.521598        -0.450174         0.275015
 H        -0.361824         1.188631        -0.169498
 H        -0.164877         0.101115        -1.479076
 H         2.550872         2.018108        -0.996363
 H         1.895587         2.260937         0.514482
 H         4.217145        -0.410158         1.920882
 H         1.317118        -0.774301         1.989558
