19
Iteration:   842
 C         4.035236        -2.340617        -0.062146
 C         3.005324        -1.210226         0.198470
 O         1.994130        -0.897178        -0.804603
 C         1.543663         0.197520         0.178843
 C         0.063215         0.080032         0.336281
 C         2.253299         1.456052        -0.314620
 O         3.677056         1.141853        -0.075441
 C         3.630991         0.079671         0.861788
 C         2.270447        -0.352512         1.316360
 H         4.431642        -2.816917         0.787417
 H         3.476502        -3.117077        -0.715291
 H         4.839888        -1.910392        -0.640940
 H        -0.447064         0.683961        -0.452640
 H        -0.232925        -0.904496         0.010637
 H        -0.147941         0.291829         1.413313
 H         2.135506         1.668091        -1.424848
 H         2.046264         2.405728         0.316598
 H         4.653461        -0.106968         1.350683
 H         1.914972        -0.443230         2.357367
