19
Iteration:  2738charge 0 multiplicity 1
 C         3.849447        -2.548505        -0.060307
 C         3.145608        -1.164543         0.055787
 O         2.363080        -0.630216        -1.034170
 C         1.571439         0.176267         0.003724
 C         0.081678         0.245288        -0.547968
 C         2.235015         1.517696         0.069124
 O         3.573416         1.255741         0.831375
 C         3.535255        -0.040288         1.091210
 C         2.128522        -0.706087         1.164896
 H         3.225518        -3.454480        -0.131219
 H         4.484053        -2.436665        -0.978587
 H         4.492231        -2.699022         0.801526
 H        -0.573580         0.974173        -0.044639
 H         0.231326         0.661497        -1.605528
 H        -0.389921        -0.692963        -0.553568
 H         2.495841         1.906878        -0.962687
 H         1.607652         2.292310         0.573692
 H         4.193099        -0.411413         1.891906
 H         1.733863        -1.310150         2.061330
