19
Iteration:  3787charge 0 multiplicity 1
 C         3.723396        -2.460281         0.195320
 C         3.074778        -1.172419         0.146073
 O         2.327952        -0.707789        -0.926711
 C         1.590553         0.115519        -0.109414
 C         0.174326         0.302230        -0.523912
 C         2.307563         1.421158        -0.027441
 O         3.580897         1.258422         0.587168
 C         3.568133        -0.093792         1.010871
 C         2.152595        -0.614224         1.183346
 H         3.101207        -3.308277        -0.150774
 H         4.565581        -2.424261        -0.528225
 H         4.033552        -2.697755         1.173559
 H        -0.427977         0.427789         0.376757
 H        -0.004432         1.342926        -1.003425
 H        -0.234098        -0.438217        -1.244241
 H         2.562730         2.123297        -0.886907
 H         1.861346         2.198943         0.600483
 H         4.349248        -0.370716         1.700630
 H         1.602935        -1.053592         2.012741
