19
Iteration:  4249
 C         3.526945        -2.638255         0.012729
 C         3.134302        -1.134889         0.251696
 O         2.535909        -0.629938        -0.927168
 C         1.538498         0.226631        -0.025857
 C         0.134266         0.026616        -0.528403
 C         2.377133         1.637636        -0.029455
 O         3.633929         1.289278         0.537186
 C         3.560099         0.013920         1.113971
 C         2.047304        -0.577480         1.220931
 H         2.670755        -3.388587         0.115905
 H         3.801504        -2.835007        -0.965166
 H         4.355516        -2.912326         0.711350
 H        -0.607350         0.006671         0.295805
 H        -0.161399         0.696121        -1.383572
 H         0.139674        -1.014350        -0.971650
 H         2.515314         1.930283        -1.087078
 H         1.981227         2.426595         0.676573
 H         4.304727        -0.196919         1.931676
 H         1.518029        -1.305039         1.849997
