19
Iteration:  3448charge 0 multiplicity 1
 C         3.800376        -2.534728        -0.007004
 C         3.249436        -1.138925         0.194900
 O         2.448752        -0.719707        -1.026823
 C         1.605652         0.103290        -0.078824
 C         0.086487         0.354489        -0.515083
 C         2.332528         1.486938        -0.122905
 O         3.508415         1.234848         0.724559
 C         3.455425        -0.041917         1.201289
 C         2.079623        -0.634187         1.205913
 H         2.777057        -3.066973        -0.082393
 H         4.242513        -2.515383        -1.049351
 H         4.385836        -2.958265         0.832889
 H        -0.165830         1.241510        -1.108890
 H        -0.498306        -0.484034        -0.825931
 H        -0.360997         0.675344         0.460135
 H         2.714515         1.459910        -1.203852
 H         1.685758         2.303569         0.309373
 H         4.068128        -0.356561         2.077185
 H         1.577767        -1.088694         2.008660
