19
Iteration:   190
 C         3.595074        -2.496898        -0.072169
 C         3.168599        -1.072733         0.143678
 O         2.142972        -0.841174        -0.797662
 C         1.519911         0.090930         0.158600
 C         0.042644        -0.076935         0.076014
 C         2.211198         1.494557        -0.170609
 O         3.552167         1.335233         0.139011
 C         3.850415         0.156190         0.772059
 C         2.533080        -0.381133         1.368040
 H         4.301347        -2.890837         0.648393
 H         2.661762        -3.116887        -0.040858
 H         4.037690        -2.491350        -1.044727
 H        -0.279799        -0.387940        -0.898925
 H        -0.362336        -0.889032         0.658626
 H        -0.561889         0.786999         0.254167
 H         2.017043         1.736262        -1.221083
 H         1.907204         2.328001         0.450129
 H         4.747633         0.018329         1.275988
 H         2.406487        -0.966717         2.258602
