19
Iteration:   911
 C         3.528031        -2.646474         0.189757
 C         3.239307        -1.181267         0.145624
 O         2.283813        -0.766001        -0.913150
 C         1.535317         0.108290         0.100287
 C         0.077129        -0.035764         0.249453
 C         2.091173         1.501238        -0.071511
 O         3.485345         1.394893        -0.004337
 C         3.842616         0.229886         0.652572
 C         2.556256        -0.462484         1.195560
 H         4.097535        -2.905133         1.126983
 H         2.524903        -3.167402         0.100650
 H         4.125564        -2.926698        -0.707728
 H        -0.348488        -0.114836        -0.769468
 H        -0.385104        -0.950218         0.694533
 H        -0.273498         0.856126         0.716481
 H         1.805200         1.934700        -1.036615
 H         1.621366         2.135661         0.824151
 H         4.874599         0.240565         1.074934
 H         2.266926        -0.726405         2.207085
