19
Iteration:   155charge 0 multiplicity 1
 C         3.492838        -2.780564         0.143497
 C         3.159257        -1.197129         0.069895
 O         2.347907        -0.561378        -0.962125
 C         1.596586         0.177036         0.058065
 C         0.127507        -0.236959         0.195082
 C         2.115590         1.617698        -0.020060
 O         3.482968         1.341040         0.044423
 C         3.736814         0.131418         0.751865
 C         2.492158        -0.328944         1.177872
 H         4.100403        -2.900797         1.094094
 H         2.564974        -3.392477         0.192834
 H         4.057061        -3.212652        -0.597457
 H        -0.361849        -0.125307        -0.707459
 H         0.159035        -1.210561         0.638253
 H        -0.154914         0.399714         1.001408
 H         2.088382         2.224116        -0.908675
 H         1.767532         2.212523         0.834676
 H         4.586728         0.235539         1.436731
 H         2.298413        -0.687510         2.269146
