19
Iteration:  4902charge 0 multiplicity 1
 C         3.951748        -2.445955        -0.139246
 C         3.093661        -1.237933         0.026288
 O         2.434526        -0.492239        -1.020913
 C         1.533567         0.149690        -0.013717
 C         0.050636         0.314845        -0.558668
 C         2.276230         1.515699         0.243690
 O         3.530259         1.194101         0.835834
 C         3.453989        -0.132853         1.070667
 C         2.141916        -0.804290         1.101926
 H         3.490127        -3.264788        -0.882941
 H         4.978907        -2.346191        -0.616504
 H         3.919450        -2.823357         0.897755
 H        -0.620772        -0.501904        -0.171823
 H        -0.529568         1.270887        -0.075156
 H         0.159394         0.318979        -1.672714
 H         2.589727         1.869712        -0.769758
 H         1.748985         2.292184         0.819810
 H         4.178047        -0.502924         1.797375
 H         1.675533        -1.256767         1.987478
