19
Iteration:  2874charge 0 multiplicity 1
 C         3.867493        -2.589578         0.011583
 C         3.134376        -1.185191         0.091539
 O         2.473244        -0.714397        -1.001820
 C         1.634835         0.116600        -0.091561
 C         0.063559         0.413739        -0.390934
 C         2.250790         1.420145        -0.022176
 O         3.530397         1.270543         0.645198
 C         3.457324        -0.053710         1.213760
 C         2.090754        -0.623446         1.109181
 H         3.234695        -3.324183        -0.419300
 H         4.734181        -2.559528        -0.581165
 H         4.249412        -2.694881         1.035378
 H        -0.407434        -0.063981        -1.322578
 H        -0.609500         0.299640         0.450069
 H         0.011543         1.539082        -0.702273
 H         2.474343         1.804314        -0.990167
 H         1.468551         2.136390         0.382848
 H         4.187216        -0.351369         1.981671
 H         1.661231        -1.077247         1.932538
