19
Iteration:  3021charge 0 multiplicity 1
 C         3.731457        -2.605209         0.164565
 C         3.041883        -1.187828         0.089573
 O         2.408421        -0.579121        -1.090367
 C         1.615275         0.301356        -0.169641
 C         0.186219         0.057239        -0.442258
 C         2.316957         1.554285         0.049803
 O         3.641587         1.237608         0.703444
 C         3.540143        -0.108476         1.041569
 C         2.058391        -0.552702         1.138712
 H         3.034881        -3.313842        -0.145325
 H         4.756172        -2.724665        -0.194664
 H         3.732171        -2.743013         1.244836
 H        -0.069872         0.686368        -1.333351
 H         0.013717        -1.032703        -0.613809
 H        -0.576005         0.415290         0.249416
 H         2.547860         2.254743        -0.835989
 H         1.655899         2.153336         0.699438
 H         4.027196        -0.394461         1.958553
 H         1.251173        -0.741929         1.803633
