19
Iteration:  4705
 C         3.824293        -2.508134        -0.140455
 C         3.033556        -1.251912         0.163144
 O         2.432621        -0.664255        -1.031297
 C         1.620500         0.206242        -0.097597
 C         0.159483         0.241991        -0.474597
 C         2.259485         1.588686         0.137390
 O         3.569385         1.230451         0.688593
 C         3.474430        -0.075784         1.156888
 C         2.107985        -0.665226         1.178441
 H         3.168798        -3.161026        -0.678225
 H         4.735749        -2.209889        -0.652144
 H         4.136074        -3.090970         0.736187
 H        -0.329028         1.125449        -0.090403
 H         0.108557         0.219382        -1.584439
 H        -0.274403        -0.714728        -0.173115
 H         2.471687         2.186093        -0.755095
 H         1.489464         2.144936         0.772116
 H         4.233475        -0.383237         1.906795
 H         1.520979        -1.011822         2.042720
