19
Iteration:  1483
 C         3.541916        -2.628772         0.037202
 C         3.166424        -1.210712         0.190188
 O         2.239646        -0.763739        -0.856046
 C         1.606148         0.054307         0.127318
 C         0.112222        -0.067155         0.064454
 C         2.139357         1.487417        -0.094664
 O         3.504911         1.428912         0.095704
 C         3.794621         0.200639         0.748100
 C         2.501852        -0.362562         1.262378
 H         3.777071        -2.899945        -0.967356
 H         4.371639        -3.001025         0.744330
 H         2.573801        -3.078667         0.341685
 H        -0.255184        -0.235313         1.106024
 H        -0.232313         0.933285        -0.313590
 H        -0.184169        -0.911485        -0.550177
 H         1.857751         1.764399        -1.154276
 H         1.589635         2.184192         0.548392
 H         4.757646         0.144961         1.172503
 H         2.530479        -0.620154         2.319609
