19
Iteration:  3543
 C         3.581236        -2.630714         0.103381
 C         3.176756        -1.192332         0.127102
 O         2.541919        -0.594564        -0.988311
 C         1.572770         0.202233        -0.070452
 C         0.229567         0.201370        -0.497778
 C         2.180917         1.559963         0.135676
 O         3.506162         1.248135         0.531872
 C         3.557654        -0.062235         1.061557
 C         2.216749        -0.648463         1.159625
 H         2.869185        -3.064615        -0.520046
 H         4.550158        -2.882025        -0.451859
 H         3.435043        -2.962598         1.167251
 H         0.194729         0.261768        -1.659976
 H        -0.317106        -0.671321        -0.228233
 H        -0.298226         1.148590        -0.159303
 H         2.228298         2.089785        -0.816134
 H         1.765838         2.093499         0.984515
 H         4.211648        -0.109092         1.966997
 H         1.462412        -0.923129         1.903809
