19
Iteration:  4057
 C         3.620145        -2.573749         0.230280
 C         3.070063        -1.149702         0.208763
 O         2.483155        -0.667116        -1.076867
 C         1.607772         0.263878        -0.180926
 C         0.058000         0.157373        -0.516626
 C         2.303089         1.611017         0.072690
 O         3.621328         1.215916         0.604117
 C         3.598459        -0.064770         1.073575
 C         2.124059        -0.633151         1.093904
 H         2.852260        -3.303220         0.506024
 H         4.141091        -2.854354        -0.788740
 H         4.421883        -2.638051         0.950596
 H        -0.448208        -0.048411         0.414102
 H        -0.312869         1.064773        -1.130765
 H        -0.165855        -0.760531        -1.096217
 H         2.613400         2.282259        -0.764429
 H         1.842992         2.100652         1.020869
 H         4.339171        -0.340853         1.879193
 H         1.520339        -1.016053         1.901589
