19
Iteration:  2986charge 0 multiplicity 1
 C         3.504374        -2.646760         0.013719
 C         3.198325        -1.150528         0.185039
 O         2.559025        -0.574563        -0.940145
 C         1.652949         0.163002        -0.045446
 C         0.122501         0.132651        -0.580648
 C         2.205392         1.571988         0.064294
 O         3.557512         1.301994         0.591784
 C         3.598885        -0.027595         1.109413
 C         2.180500        -0.606643         1.167328
 H         2.697917        -3.025359        -0.478155
 H         4.323709        -3.092948        -0.594684
 H         3.534474        -3.173109         0.918619
 H         0.199314        -0.156045        -1.641488
 H        -0.423933        -0.829251        -0.158875
 H        -0.405067         1.020750        -0.259944
 H         2.300412         2.061155        -0.914255
 H         1.612887         2.065107         0.850865
 H         4.207996        -0.082217         1.994070
 H         1.595901        -1.054651         2.011413
