19
Iteration:  4206charge 0 multiplicity 1
 C         3.777547        -2.589993         0.216765
 C         3.052659        -1.240547         0.166114
 O         2.475371        -0.723148        -1.063791
 C         1.560580         0.235195        -0.093139
 C         0.117125         0.297933        -0.464013
 C         2.290225         1.555030         0.076923
 O         3.583157         1.288729         0.600862
 C         3.521643        -0.105626         1.008611
 C         2.111593        -0.639664         1.103679
 H         3.010489        -3.369831        -0.148171
 H         4.469761        -2.611144        -0.569240
 H         4.216775        -2.852478         1.191929
 H        -0.097811         1.227304         0.022865
 H        -0.218207         0.480920        -1.521028
 H        -0.405315        -0.549926        -0.012417
 H         2.408028         2.059072        -0.917234
 H         1.625065         2.250670         0.740630
 H         4.420162        -0.148493         1.662053
 H         1.511467        -1.091690         1.890378
