19
Iteration:  3597charge 0 multiplicity 1
 C         3.737094        -2.487545        -0.018471
 C         3.100568        -1.151715         0.225459
 O         2.379370        -0.712292        -1.019701
 C         1.500033         0.258951        -0.081802
 C         0.116766         0.133016        -0.443885
 C         2.436846         1.571884        -0.047681
 O         3.660309         1.204473         0.676938
 C         3.470580        -0.114195         1.158861
 C         2.042653        -0.570101         1.156409
 H         3.212672        -3.131332        -0.624355
 H         4.557327        -2.064993        -0.664957
 H         4.133657        -2.883694         0.958879
 H         0.226029        -0.214612        -1.523198
 H        -0.369721        -0.662984         0.038839
 H        -0.483510         1.052849        -0.362538
 H         2.625844         1.856127        -1.065557
 H         2.109607         2.509939         0.501938
 H         4.096593        -0.458651         1.996271
 H         1.450851        -0.968017         1.964041
