19
Iteration:  1835charge 0 multiplicity 1
 C         3.657621        -2.572136        -0.108842
 C         3.143933        -1.106196         0.075639
 O         2.353991        -0.656152        -0.903176
 C         1.521785         0.122883         0.133049
 C         0.103355         0.084099        -0.284491
 C         2.137539         1.481158         0.205862
 O         3.551505         1.378981         0.403573
 C         3.724735         0.049831         0.854441
 C         2.357331        -0.644424         1.177068
 H         3.479257        -3.290814         0.737409
 H         3.113234        -3.015300        -0.955858
 H         4.729078        -2.691445        -0.321186
 H        -0.525407        -0.516615         0.337610
 H        -0.240667         1.081449        -0.208744
 H         0.150176        -0.232142        -1.322911
 H         1.815265         2.116744        -0.661954
 H         1.672208         1.892940         1.160761
 H         4.468028        -0.069693         1.625003
 H         2.147291        -1.219585         2.081495
