19
Iteration:  1739charge 0 multiplicity 1
 C         3.903637        -2.514022        -0.152117
 C         3.124371        -1.204553         0.121282
 O         2.279007        -0.746196        -0.972141
 C         1.495259         0.188474         0.128708
 C         0.027933         0.090615        -0.066824
 C         2.280261         1.558600        -0.058060
 O         3.575364         1.336298         0.380801
 C         3.553929        -0.020920         0.966766
 C         2.238839        -0.568752         1.262909
 H         3.858087        -2.775461        -1.245742
 H         4.957640        -2.427068        -0.055266
 H         3.635089        -3.457960         0.338827
 H        -0.356775        -0.943509        -0.176648
 H        -0.211561         0.362976         1.007428
 H        -0.416831         0.880444        -0.725411
 H         2.373369         1.730078        -1.123492
 H         1.735236         2.365404         0.399640
 H         4.489090        -0.063989         1.488827
 H         1.819631        -0.869667         2.232960
