19
Iteration:  3729charge 0 multiplicity 1
 C         3.530428        -2.540313        -0.022204
 C         3.090576        -1.149093         0.215714
 O         2.609302        -0.617918        -1.005285
 C         1.616055         0.261545        -0.096655
 C         0.151412         0.006563        -0.405486
 C         2.290921         1.529461        -0.015240
 O         3.607033         1.196040         0.528840
 C         3.505451        -0.027451         1.151809
 C         2.086056        -0.495180         1.219831
 H         2.838684        -2.958078        -0.698560
 H         4.613327        -2.601539        -0.490491
 H         3.621429        -3.077718         0.952999
 H        -0.361933         0.936561        -0.194178
 H         0.123499        -0.322308        -1.440152
 H        -0.203161        -0.717096         0.339567
 H         2.512237         1.903589        -1.005689
 H         1.890800         2.189234         0.791299
 H         4.061194        -0.513806         1.969257
 H         1.251632        -0.515804         1.939062
