19
Iteration:  3139
 C         3.675350        -2.535623         0.167498
 C         3.111517        -1.207642         0.116771
 O         2.576072        -0.527486        -1.040363
 C         1.588985         0.232616        -0.106521
 C         0.134511         0.136702        -0.464494
 C         2.270286         1.542393         0.027354
 O         3.598976         1.223850         0.640539
 C         3.446916        -0.125806         1.109963
 C         2.079854        -0.616619         1.085599
 H         2.915986        -3.326432        -0.060381
 H         4.554982        -2.597628        -0.635517
 H         4.133918        -2.888583         1.125026
 H        -0.219199         0.971953        -1.130224
 H        -0.178848        -0.921721        -0.837954
 H        -0.461391         0.322172         0.460302
 H         2.550860         1.985156        -0.973509
 H         1.628384         2.268679         0.626511
 H         4.163066        -0.252846         1.963667
 H         1.480120        -1.213872         1.738801
