19
Iteration:  4885
 C         3.845705        -2.544487        -0.055440
 C         3.150581        -1.172195         0.042164
 O         2.437504        -0.471776        -1.088352
 C         1.545334         0.210152        -0.076974
 C         0.145151         0.256786        -0.470070
 C         2.183195         1.526191         0.256973
 O         3.527164         1.233431         0.803206
 C         3.581204        -0.235765         1.104228
 C         2.092090        -0.747840         1.014434
 H         3.345568        -3.297450        -0.583744
 H         4.723992        -2.368618        -0.657060
 H         4.296319        -2.851762         0.886074
 H        -0.373259        -0.658034        -0.604247
 H        -0.385760         0.908499         0.182689
 H         0.111880         0.638171        -1.474398
 H         2.147395         2.239004        -0.556683
 H         1.477605         1.990646         1.013178
 H         4.282194        -0.394165         1.960180
 H         1.471106        -1.308822         1.730532
