19
Iteration:  3292charge 0 multiplicity 1
 C         3.793023        -2.595217         0.197050
 C         3.019827        -1.249301         0.078562
 O         2.492571        -0.539896        -1.074410
 C         1.625093         0.156022        -0.118389
 C         0.096566         0.230334        -0.422263
 C         2.353361         1.530125        -0.051393
 O         3.521301         1.257364         0.729520
 C         3.467482        -0.081876         1.120692
 C         2.096507        -0.625428         1.085933
 H         3.259588        -3.502140         0.215606
 H         4.413939        -2.873829        -0.734496
 H         4.535037        -2.454413         1.021799
 H        -0.183385         0.913496        -1.223723
 H        -0.356155        -0.640157        -0.850478
 H        -0.478472         0.433962         0.435300
 H         2.594964         1.798114        -1.094213
 H         1.982468         2.470274         0.498364
 H         4.231158        -0.470719         1.797081
 H         1.406015        -0.931511         1.887343
