19
Iteration:  4993charge 0 multiplicity 1
 C         3.785042        -2.445966        -0.150851
 C         3.120256        -1.159467        -0.038483
 O         2.505912        -0.394419        -1.112523
 C         1.591115         0.163433        -0.032651
 C         0.160537         0.170255        -0.497643
 C         2.191898         1.557078         0.320529
 O         3.564719         1.223043         0.854134
 C         3.496474        -0.216670         1.099981
 C         2.077943        -0.817924         1.105046
 H         2.974332        -3.206506        -0.334596
 H         4.578918        -2.539812        -0.886666
 H         4.074366        -2.654914         0.915240
 H        -0.500922         0.809930         0.096037
 H         0.197772         0.555874        -1.609735
 H        -0.163926        -0.871903        -0.629329
 H         2.355342         2.199769        -0.527425
 H         1.597030         1.991848         1.103967
 H         4.287415        -0.428101         1.825047
 H         1.444570        -1.520048         1.631088
