19
Iteration:  3626charge 0 multiplicity 1
 C         3.853045        -2.525785        -0.006878
 C         2.991243        -1.307051         0.192251
 O         2.432503        -0.588566        -0.987384
 C         1.564730         0.206398        -0.153582
 C         0.135579         0.259148        -0.453962
 C         2.331458         1.506063        -0.050744
 O         3.590123         1.154400         0.604884
 C         3.451354        -0.120767         1.222909
 C         2.070050        -0.549942         1.186241
 H         3.395348        -3.617365        -0.034386
 H         4.478543        -2.109190        -0.754213
 H         4.582159        -2.429885         0.831260
 H         0.111772         0.489038        -1.521582
 H        -0.404720        -0.662538        -0.167583
 H        -0.225924         1.079536         0.140341
 H         2.503191         1.942279        -1.046813
 H         1.907893         2.383042         0.464104
 H         4.205124        -0.388848         2.016341
 H         1.361038        -0.768220         2.073465
