19
Iteration:  2664
 C         3.922266        -2.442690        -0.130153
 C         3.119578        -1.218018         0.093495
 O         2.464243        -0.576032        -1.002608
 C         1.526638         0.158659        -0.008430
 C         0.139989         0.277069        -0.502670
 C         2.260996         1.550122         0.124191
 O         3.509994         1.206724         0.663705
 C         3.474143        -0.195465         1.131135
 C         2.074952        -0.693540         1.207465
 H         3.393195        -3.019861        -0.911377
 H         4.909348        -2.210512        -0.454581
 H         3.857938        -2.993566         0.776099
 H        -0.009681         0.972970        -1.364674
 H        -0.035139        -0.749748        -0.996689
 H        -0.538581         0.481036         0.342020
 H         2.345166         2.151440        -0.746966
 H         1.811326         2.284445         0.845399
 H         4.076385        -0.489621         2.002218
 H         1.429478        -1.157821         2.070112
