19
Iteration:  1575charge 0 multiplicity 1
 C         4.012838        -2.453534        -0.130563
 C         3.167136        -1.202327         0.104872
 O         2.108269        -0.862806        -0.853459
 C         1.480981         0.059783         0.090386
 C        -0.024981         0.256379         0.045318
 C         2.160200         1.427847        -0.093276
 O         3.620334         1.344626         0.206804
 C         3.666503         0.025213         0.902311
 C         2.367391        -0.508774         1.273745
 H         3.425679        -3.221419         0.442416
 H         4.173625        -2.815834        -1.119377
 H         4.869316        -2.313077         0.520768
 H        -0.370277         1.223702        -0.409946
 H        -0.572037        -0.500209        -0.558175
 H        -0.391295         0.244876         1.130156
 H         2.007425         1.605690        -1.162161
 H         1.760714         2.311788         0.478211
 H         4.578342        -0.141141         1.522093
 H         1.945083        -0.769775         2.292799
