19
Iteration:  2169charge 0 multiplicity 1
 C         3.867303        -2.504802        -0.346218
 C         3.132360        -1.160340         0.067504
 O         2.344637        -0.599145        -1.005737
 C         1.575959         0.143353        -0.078268
 C         0.105524         0.192900        -0.425012
 C         2.268679         1.561637         0.139321
 O         3.486066         1.283535         0.934677
 C         3.562805        -0.067526         1.162587
 C         2.170186        -0.737361         1.129217
 H         4.953945        -2.330665        -0.294669
 H         3.691908        -3.301965         0.529008
 H         3.447252        -3.031383        -1.280035
 H        -0.305992         1.193945        -0.513813
 H         0.098362        -0.095314        -1.475676
 H        -0.654187        -0.450076         0.093864
 H         2.400578         1.879140        -0.893423
 H         1.802403         2.427292         0.722038
 H         4.484481        -0.375687         1.813641
 H         1.641804        -1.400269         1.777554
