19
Iteration:  1350charge 0 multiplicity 1
 C         3.746139        -2.574878         0.094453
 C         3.147850        -1.231820         0.208229
 O         2.091036        -0.881289        -0.709017
 C         1.549046         0.132579         0.173357
 C         0.063627         0.049262         0.129437
 C         2.130448         1.449746        -0.274864
 O         3.587880         1.442283         0.025758
 C         3.728701         0.112255         0.688841
 C         2.544904        -0.380145         1.307229
 H         4.581427        -2.666945         0.774812
 H         3.026485        -3.366681         0.074875
 H         4.149847        -2.594549        -0.955804
 H        -0.148521         0.159098        -0.938140
 H        -0.345647        -0.931158         0.304883
 H        -0.517010         0.806835         0.693205
 H         1.990794         1.608131        -1.349442
 H         1.641102         2.351033         0.159774
 H         4.701629         0.296592         1.106812
 H         2.174155        -0.727454         2.251424
