19
Iteration:  4789
 C         3.743536        -2.529371        -0.234101
 C         3.154617        -1.163726         0.136679
 O         2.467996        -0.618392        -0.985771
 C         1.594199         0.212218        -0.093158
 C         0.109668         0.137254        -0.556108
 C         2.327296         1.549350         0.154607
 O         3.495403         1.241131         0.771054
 C         3.528948        -0.083369         1.186199
 C         2.120124        -0.640455         1.188183
 H         2.985098        -3.116390        -0.694026
 H         4.487737        -2.442667        -1.104989
 H         4.293233        -3.075846         0.614739
 H        -0.157855         0.375980        -1.644899
 H        -0.306912        -0.779118        -0.264524
 H        -0.563072         0.948822         0.008244
 H         2.595726         2.265113        -0.638174
 H         1.591203         2.024862         0.818559
 H         4.246008        -0.305050         2.030075
 H         1.527439        -1.046035         2.046955
