19
Iteration:  4413charge 0 multiplicity 1
 C         3.613862        -2.540555         0.027427
 C         3.043329        -1.188644         0.280009
 O         2.478272        -0.571772        -0.904951
 C         1.584711         0.198610        -0.043434
 C         0.123227         0.057955        -0.591775
 C         2.281594         1.610773        -0.032681
 O         3.674544         1.221526         0.569263
 C         3.609399        -0.077639         1.109990
 C         2.063486        -0.566251         1.249100
 H         2.872162        -3.295650        -0.352817
 H         4.171137        -2.473031        -0.860713
 H         4.230024        -2.882588         0.825123
 H        -0.643133         0.582034        -0.093795
 H         0.153879         0.281209        -1.688536
 H        -0.143399        -0.992669        -0.656495
 H         2.573017         1.771335        -1.078796
 H         1.925361         2.516930         0.475648
 H         4.274861        -0.291109         1.918320
 H         1.361641        -0.942740         2.026354
