19
Iteration:  4528charge 0 multiplicity 1
 C         3.850634        -2.514298        -0.100873
 C         3.062527        -1.235420         0.232594
 O         2.349462        -0.637056        -0.930324
 C         1.552928         0.154663        -0.120175
 C         0.141200         0.162275        -0.499843
 C         2.420310         1.543203        -0.011478
 O         3.610821         1.186230         0.675392
 C         3.458617        -0.172095         1.156128
 C         1.983417        -0.428636         1.205084
 H         3.593453        -3.082463        -0.954778
 H         4.760963        -1.958935        -0.560796
 H         4.237008        -3.096128         0.808368
 H         0.216546         0.297742        -1.655944
 H        -0.366182        -0.681551        -0.091158
 H        -0.367186         1.159446        -0.245080
 H         2.760087         1.901654        -0.988067
 H         1.848330         2.253534         0.547690
 H         4.053570        -0.392490         2.011084
 H         1.307389        -0.714564         1.995969
