19
Iteration:  1411
 C         3.937609        -2.434447         0.078969
 C         3.072362        -1.260585         0.202338
 O         2.123744        -0.855410        -0.836482
 C         1.510431         0.180417         0.067265
 C        -0.002795         0.114886         0.208157
 C         2.256614         1.523498        -0.189503
 O         3.584104         1.210361        -0.032444
 C         3.628933         0.074024         0.758193
 C         2.371335        -0.428763         1.329089
 H         5.019673        -2.026956        -0.012917
 H         3.976948        -3.162707         0.873762
 H         3.731456        -2.801783        -0.939622
 H        -0.262029        -0.927359        -0.057723
 H        -0.112978         0.268859         1.282478
 H        -0.576252         0.802834        -0.434813
 H         2.153218         1.725263        -1.266958
 H         1.942524         2.363613         0.482195
 H         4.577782         0.012689         1.346438
 H         1.967959        -0.575514         2.273535
