19
Iteration:  1765
 C         3.927376        -2.315556        -0.204942
 C         3.079384        -1.207917         0.165780
 O         2.251299        -0.665345        -0.956509
 C         1.513406         0.163073        -0.009091
 C        -0.002738         0.091488         0.037225
 C         2.301557         1.474864        -0.126631
 O         3.640202         1.165818         0.443305
 C         3.550138        -0.070526         0.989244
 C         2.191610        -0.526579         1.194757
 H         3.660707        -3.094819        -0.879755
 H         4.976660        -2.006483        -0.523845
 H         4.128698        -2.937137         0.711459
 H        -0.283089        -0.849749         0.593130
 H        -0.389749         0.915120         0.717054
 H        -0.454047         0.164505        -0.964133
 H         2.624386         1.870389        -1.092701
 H         1.701875         2.244584         0.385734
 H         4.368565        -0.029740         1.782615
 H         1.716231        -0.998889         2.034027
