19
Iteration:   383charge 0 multiplicity 1
 C         3.756652        -2.520965         0.098971
 C         3.200629        -1.143285         0.045292
 O         2.052712        -0.763074        -0.907423
 C         1.516315         0.127686         0.097069
 C         0.031145        -0.079533         0.228458
 C         2.170526         1.543451        -0.117851
 O         3.696055         1.310036         0.078732
 C         3.763033         0.089036         0.762631
 C         2.390686        -0.409866         1.228022
 H         4.629203        -2.529629         0.830032
 H         3.048334        -3.289656         0.476900
 H         4.103483        -2.710379        -0.862894
 H        -0.365129        -0.025381        -0.786876
 H        -0.235532        -1.062421         0.665142
 H        -0.600895         0.715362         0.648267
 H         2.119839         2.041804        -1.078135
 H         1.720277         2.173093         0.626666
 H         4.583974        -0.165400         1.452302
 H         2.115826        -0.579904         2.269876
