19
Iteration:  3090
 C         3.868541        -2.518593        -0.100013
 C         3.096146        -1.264862         0.291842
 O         2.380874        -0.834601        -0.895783
 C         1.555634         0.120642        -0.061927
 C         0.142398         0.393917        -0.686805
 C         2.319096         1.552199        -0.043849
 O         3.559329         1.295008         0.678048
 C         3.510211        -0.083507         1.180060
 C         2.046788        -0.600434         1.240885
 H         3.172873        -3.416260        -0.245424
 H         4.519004        -2.429261        -0.937180
 H         4.513318        -2.833328         0.744866
 H         0.026786         1.413279        -1.041495
 H         0.055166        -0.367595        -1.363180
 H        -0.714717         0.228537        -0.005674
 H         2.398837         2.094077        -1.018943
 H         1.678848         2.282422         0.535272
 H         4.341797        -0.083582         1.910933
 H         1.546443        -0.861536         2.189148
