19
Iteration:  3489charge 0 multiplicity 1
 C         3.743680        -2.573899         0.031171
 C         3.003715        -1.244043         0.170713
 O         2.430689        -0.593209        -0.982465
 C         1.609437         0.277887        -0.142909
 C         0.299557         0.102873        -0.478295
 C         2.318321         1.592254         0.012760
 O         3.599676         1.218579         0.602044
 C         3.380894        -0.144390         1.147181
 C         2.044144        -0.524695         1.213051
 H         3.085616        -3.367983         0.029942
 H         4.329027        -2.478684        -0.921462
 H         4.535039        -2.827947         0.779999
 H        -0.082674         1.011429        -1.091326
 H         0.206919        -0.801938        -1.023110
 H        -0.368982         0.124853         0.423184
 H         2.555001         1.888823        -1.016362
 H         1.866824         2.372611         0.624775
 H         4.202175        -0.338529         1.883251
 H         1.435336        -0.823397         2.071268
