19
Iteration:  2363charge 0 multiplicity 1
 C         3.804120        -2.517534        -0.155313
 C         3.103734        -1.151886         0.055790
 O         2.462709        -0.438179        -1.058259
 C         1.563930         0.245659        -0.095027
 C         0.131448         0.141931        -0.534943
 C         2.198201         1.581882         0.264312
 O         3.580857         1.206438         0.789289
 C         3.506468        -0.226954         1.166112
 C         2.128657        -0.759264         1.114091
 H         3.332764        -3.452553        -0.019124
 H         4.281124        -2.401971        -1.165937
 H         4.680078        -2.484972         0.514529
 H        -0.280179         1.028426        -1.070426
 H        -0.189523        -0.768082        -1.076445
 H        -0.491321         0.037922         0.446252
 H         2.319094         2.222972        -0.700668
 H         1.733506         2.208894         1.058851
 H         4.237488        -0.512230         1.881580
 H         1.493099        -1.335907         1.774603
