19
Iteration:   266
 C         4.038855        -2.383292         0.048997
 C         3.110346        -1.209450         0.145302
 O         2.109949        -0.911504        -0.920070
 C         1.502827         0.096615         0.150904
 C        -0.014446         0.237968         0.328437
 C         2.209317         1.474298        -0.232044
 O         3.634781         1.216747        -0.030408
 C         3.635114         0.033611         0.761765
 C         2.289557        -0.447510         1.315762
 H         4.722431        -2.394936         0.881340
 H         3.509797        -3.370197        -0.081689
 H         4.581887        -2.157074        -0.844118
 H        -0.382276         1.098597        -0.159903
 H        -0.551826        -0.684364         0.165023
 H        -0.310844         0.551639         1.295179
 H         2.137067         1.779615        -1.281783
 H         1.784585         2.305005         0.363800
 H         4.388891        -0.037880         1.551275
 H         1.987922        -1.018174         2.181762
