19
Iteration:  2465
 C         3.845132        -2.423485        -0.147140
 C         3.024988        -1.174351         0.041351
 O         2.505507        -0.491013        -1.081101
 C         1.635047         0.213778        -0.090585
 C         0.101136         0.105972        -0.379987
 C         2.321613         1.607970         0.218168
 O         3.574476         1.215267         0.770709
 C         3.452037        -0.210551         1.155185
 C         2.030417        -0.713707         1.018435
 H         3.308420        -3.177842        -0.868350
 H         4.896802        -2.154978        -0.403354
 H         3.898119        -2.827611         0.900105
 H        -0.494227         0.048594         0.577558
 H        -0.520592         0.618964        -1.175784
 H         0.010020        -1.014420        -0.625930
 H         2.554930         2.094836        -0.730367
 H         1.612194         2.190953         0.887708
 H         4.235339        -0.551147         1.960843
 H         1.349106        -1.080138         1.773444
