19
Iteration:   676
 C         3.855960        -2.507253        -0.002130
 C         3.161433        -1.166101         0.035874
 O         2.043212        -0.946079        -0.770983
 C         1.552072         0.179413         0.228452
 C         0.039603         0.125417         0.215051
 C         2.130421         1.474816        -0.208069
 O         3.556926         1.333526         0.086525
 C         3.752666         0.077409         0.668703
 C         2.497334        -0.397936         1.318242
 H         4.182158        -2.885302         1.020120
 H         3.157928        -3.215545        -0.426351
 H         4.745813        -2.472790        -0.657383
 H        -0.393933         0.757590        -0.552217
 H        -0.298801        -0.801279        -0.228522
 H        -0.380576         0.247860         1.231482
 H         2.025849         1.537900        -1.332879
 H         1.621717         2.322529         0.271837
 H         4.668453        -0.064737         1.285921
 H         2.237412        -0.462525         2.370195
