19
Iteration:  2879
 C         3.866857        -2.531070         0.055773
 C         3.134215        -1.174707         0.093332
 O         2.458923        -0.685879        -1.019475
 C         1.630590         0.135547        -0.098886
 C         0.098719         0.412759        -0.365950
 C         2.275111         1.424241        -0.034327
 O         3.504161         1.271413         0.616107
 C         3.426972        -0.092346         1.197134
 C         2.105135        -0.676461         1.115425
 H         3.266816        -3.496201        -0.165594
 H         4.772304        -2.465718        -0.694389
 H         4.295702        -2.832194         1.035042
 H        -0.298917         0.087759        -1.297176
 H        -0.561878         0.254622         0.537662
 H         0.108148         1.427814        -0.612993
 H         2.491875         1.845157        -1.094214
 H         1.545157         2.132344         0.360600
 H         4.068904        -0.483596         1.994145
 H         1.501499        -1.221122         1.956129
