19
Iteration:  3744
 C         3.623298        -2.610282        -0.011745
 C         3.040305        -1.247475         0.246609
 O         2.536053        -0.576069        -0.908236
 C         1.653235         0.172819        -0.129907
 C         0.194364         0.063791        -0.408398
 C         2.326391         1.619703        -0.028367
 O         3.620328         1.266252         0.528834
 C         3.482075        -0.104104         1.119564
 C         2.043650        -0.495356         1.167483
 H         2.905774        -3.136665        -0.684951
 H         4.614615        -2.462355        -0.405276
 H         3.640573        -3.275332         0.817708
 H        -0.376542         0.929296        -0.027698
 H        -0.190536        -0.015376        -1.507239
 H        -0.280315        -0.863195         0.012574
 H         2.390867         2.158115        -1.068048
 H         1.623510         2.280665         0.511531
 H         4.207955        -0.028360         1.927704
 H         1.662195        -0.820971         2.149002
