19
Iteration:  1027charge 0 multiplicity 1
 C         3.999388        -2.491205         0.135986
 C         3.154529        -1.228966         0.153465
 O         2.012364        -0.927759        -0.850515
 C         1.529214         0.079506         0.141412
 C         0.062019         0.289836         0.252185
 C         2.170805         1.363317        -0.269245
 O         3.512877         1.393073         0.074289
 C         3.703378         0.060074         0.642775
 C         2.445552        -0.456373         1.287657
 H         4.570684        -2.609505         1.013344
 H         3.374250        -3.430414        -0.076926
 H         4.590053        -2.470515        -0.796151
 H        -0.308822         1.160207        -0.324459
 H        -0.622706        -0.451310        -0.153904
 H        -0.195008         0.440573         1.304206
 H         2.082887         1.481154        -1.399505
 H         1.648482         2.243202         0.220865
 H         4.649393        -0.020518         1.329996
 H         2.067275        -0.594515         2.271466
