19
Iteration:  3382
 C         3.686588        -2.495339         0.075426
 C         3.060451        -1.139934         0.207248
 O         2.464655        -0.512685        -1.026778
 C         1.559112         0.196109        -0.078280
 C         0.141826         0.106203        -0.546546
 C         2.300738         1.535207         0.109318
 O         3.696758         1.186321         0.503189
 C         3.481156        -0.117414         1.182227
 C         2.058984        -0.639165         1.143538
 H         3.164307        -3.144228        -0.684093
 H         4.747088        -2.404276        -0.374869
 H         3.774464        -2.916454         1.127223
 H         0.097870        -0.153615        -1.612391
 H        -0.152857        -0.789245        -0.075506
 H        -0.399975         0.959846        -0.102927
 H         2.352280         2.085031        -0.905092
 H         1.949916         2.120760         1.029977
 H         4.062653        -0.134297         2.118060
 H         1.409800        -1.149977         1.852891
