19
Iteration:  4573charge 0 multiplicity 1
 C         3.795961        -2.476661        -0.073731
 C         2.989321        -1.238544         0.186059
 O         2.465884        -0.632740        -0.958609
 C         1.577784         0.144430         0.001219
 C         0.164314         0.302964        -0.537684
 C         2.294146         1.490414        -0.015064
 O         3.543782         1.183698         0.670909
 C         3.513586        -0.074920         1.147385
 C         2.105117        -0.644782         1.189031
 H         3.377691        -3.227617        -0.700150
 H         4.783413        -2.113711        -0.551920
 H         3.984453        -2.922563         0.979324
 H        -0.129045        -0.335983        -1.412968
 H        -0.528587         0.332674         0.293134
 H         0.159539         1.272409        -1.140712
 H         2.465032         1.827900        -1.028551
 H         1.809664         2.212546         0.615060
 H         4.200857        -0.119381         1.985990
 H         1.487451        -1.187431         1.921887
