19
Iteration:  2748
 C         3.777478        -2.539566        -0.045954
 C         3.145915        -1.204283         0.109722
 O         2.421531        -0.648923        -1.050396
 C         1.494208         0.150069        -0.014948
 C         0.092093         0.264071        -0.560443
 C         2.270880         1.540075         0.128430
 O         3.487206         1.373840         0.784261
 C         3.562730        -0.108388         1.125830
 C         2.241995        -0.741808         1.117775
 H         2.934568        -3.255467        -0.065542
 H         4.414406        -2.652222        -1.000201
 H         4.418868        -2.767576         0.827482
 H        -0.568385         0.731895         0.171035
 H         0.119357         0.833705        -1.541377
 H        -0.233859        -0.681327        -0.843941
 H         2.416699         1.862107        -0.958777
 H         1.805784         2.293423         0.760939
 H         4.422911        -0.424030         1.719728
 H         1.753568        -1.262171         1.987983
