19
Iteration:  3338charge 0 multiplicity 1
 C         3.583329        -2.657430        -0.055643
 C         3.142377        -1.219955         0.258886
 O         2.434473        -0.647985        -0.986814
 C         1.653682         0.163833        -0.066654
 C         0.132130         0.074091        -0.599035
 C         2.268194         1.565467         0.060641
 O         3.627224         1.362902         0.651920
 C         3.567896         0.025803         1.186697
 C         2.123263        -0.567244         1.170753
 H         2.807474        -3.152182        -0.648366
 H         4.446953        -2.768739        -0.815648
 H         3.933770        -3.233239         0.872385
 H         0.176738         0.425628        -1.667880
 H        -0.380364        -0.831550        -0.699328
 H        -0.547235         0.756851        -0.052572
 H         2.588906         2.156596        -0.861396
 H         1.470408         2.103215         0.669451
 H         4.228674        -0.073201         2.049356
 H         1.694105        -0.837014         2.167969
