19
Iteration:  2297
 C         3.950762        -2.415783        -0.380346
 C         3.207231        -1.161393         0.086691
 O         2.452740        -0.641465        -1.010097
 C         1.549083         0.096024        -0.012391
 C         0.158073         0.376810        -0.450073
 C         2.225343         1.499376         0.155206
 O         3.471614         1.240924         0.891641
 C         3.430061        -0.205166         1.175028
 C         2.026028        -0.744395         1.113674
 H         3.427331        -2.682034        -1.255171
 H         4.981713        -2.006938        -0.517083
 H         4.128380        -3.277415         0.281245
 H         0.036594         0.286045        -1.559362
 H        -0.523292        -0.333560         0.091857
 H        -0.202542         1.380411        -0.086074
 H         2.689356         1.719381        -0.854746
 H         1.496780         2.173089         0.630675
 H         4.097816        -0.428291         2.091550
 H         1.565241        -1.177398         1.947280
