19
Iteration:  1471charge 0 multiplicity 1
 C         3.560369        -2.644662         0.098837
 C         3.241077        -1.136576         0.110375
 O         2.235487        -0.807582        -0.855778
 C         1.600408         0.119835         0.154744
 C         0.087910        -0.019406         0.114373
 C         2.054305         1.518920        -0.116216
 O         3.536065         1.410942         0.105275
 C         3.786127         0.143379         0.677761
 C         2.559032        -0.442011         1.278037
 H         4.171042        -2.759928        -0.805071
 H         4.175723        -3.035471         0.995256
 H         2.674129        -3.313738        -0.070284
 H        -0.375575        -0.405297         1.046674
 H        -0.477589         0.921347        -0.066132
 H        -0.259258        -0.653350        -0.702016
 H         1.970312         1.723902        -1.207292
 H         1.692605         2.325544         0.513631
 H         4.575938         0.179096         1.394446
 H         1.892505        -0.510911         2.195067
