19
Iteration:  3841
 C         3.722077        -2.520818         0.099723
 C         3.013115        -1.208515         0.284985
 O         2.472068        -0.665168        -0.987266
 C         1.611167         0.208660        -0.145166
 C         0.087479         0.213835        -0.432985
 C         2.344420         1.462864        -0.091247
 O         3.639709         1.201588         0.483266
 C         3.502549        -0.085784         1.204477
 C         2.067452        -0.514315         1.191908
 H         3.123021        -3.401869         0.396360
 H         4.135857        -2.501875        -0.966079
 H         4.642299        -2.571426         0.666710
 H        -0.440989        -0.596522         0.041621
 H        -0.332635         1.237947        -0.152011
 H        -0.185471         0.120214        -1.501776
 H         2.655166         1.940649        -1.078646
 H         1.884740         2.269286         0.571380
 H         4.239119        -0.296660         1.938529
 H         1.364438        -0.861971         1.922656
