19
Iteration:  3633
 C         3.861827        -2.529695         0.055771
 C         3.064467        -1.288992         0.180975
 O         2.451104        -0.662226        -1.022555
 C         1.599212         0.198840        -0.067639
 C         0.079543         0.322289        -0.473595
 C         2.296509         1.539854        -0.022820
 O         3.610980         1.148668         0.590064
 C         3.458412        -0.100609         1.198299
 C         2.016207        -0.557248         1.158986
 H         3.273575        -3.441183        -0.077548
 H         4.392334        -2.294926        -0.956691
 H         4.701760        -2.670428         0.713093
 H         0.050653         0.735627        -1.483656
 H        -0.410743        -0.723254        -0.373510
 H        -0.422746         1.064379         0.223796
 H         2.601319         1.934042        -1.056000
 H         1.759268         2.267026         0.609164
 H         4.084355        -0.091988         2.082522
 H         1.511910        -0.987969         1.996251
