19
Iteration:  3361
 C         3.614574        -2.566249        -0.038778
 C         3.072357        -1.236150         0.245657
 O         2.647239        -0.532255        -0.864636
 C         1.628049         0.219482        -0.016938
 C         0.203704         0.099778        -0.537071
 C         2.226180         1.573555         0.086045
 O         3.533003         1.186511         0.475435
 C         3.445933        -0.083249         1.126034
 C         2.096610        -0.560460         1.162313
 H         2.928821        -3.044440        -0.818892
 H         4.590726        -2.601915        -0.606811
 H         3.743544        -3.158625         0.907770
 H         0.223671         0.071473        -1.637262
 H        -0.347430        -0.788100        -0.259993
 H        -0.340675         0.986982        -0.107975
 H         2.464418         2.072025        -0.925218
 H         1.589563         2.224630         0.768455
 H         4.370586        -0.100052         1.708826
 H         1.500696        -0.893191         1.993705
