19
Iteration:   276charge 0 multiplicity 1
 C         3.973220        -2.454306         0.050524
 C         3.065021        -1.231098         0.174115
 O         2.138942        -0.861557        -0.824046
 C         1.503016         0.170432         0.110506
 C        -0.022158         0.201701         0.299087
 C         2.150690         1.554719        -0.272766
 O         3.566566         1.227677         0.016096
 C         3.702752         0.032649         0.763400
 C         2.421868        -0.499011         1.246574
 H         4.618635        -2.588469         0.935793
 H         3.472366        -3.453014        -0.150385
 H         4.656963        -2.347830        -0.740335
 H        -0.445197         0.967678        -0.300906
 H        -0.412656        -0.722170        -0.123885
 H        -0.209557         0.221168         1.348084
 H         2.013998         1.744529        -1.342497
 H         1.811022         2.412150         0.363632
 H         4.625642        -0.016705         1.315375
 H         2.086852        -0.787852         2.263426
