19
Iteration:  4099charge 0 multiplicity 1
 C         3.570050        -2.572475         0.102571
 C         3.068808        -1.264612         0.189287
 O         2.508991        -0.598672        -0.995985
 C         1.636607         0.211456        -0.129342
 C         0.180992         0.196869        -0.486243
 C         2.317750         1.601982         0.029755
 O         3.536659         1.252081         0.565257
 C         3.543466        -0.052968         1.136035
 C         2.152268        -0.640740         1.175522
 H         2.802794        -3.277016        -0.278019
 H         4.515183        -2.478227        -0.513329
 H         3.865820        -3.029341         1.036810
 H        -0.393790         0.917231         0.044070
 H         0.030462         0.258527        -1.633821
 H        -0.211159        -0.799567        -0.157507
 H         2.394092         1.879118        -1.030095
 H         1.596944         2.275270         0.520738
 H         4.399938        -0.126882         1.856307
 H         1.684954        -1.227794         1.951931
