19
Iteration:  3478
 C         3.747217        -2.579123        -0.021816
 C         2.992606        -1.255306         0.259478
 O         2.471060        -0.597938        -0.982866
 C         1.680346         0.188484        -0.062117
 C         0.131297         0.161263        -0.497113
 C         2.369965         1.568954        -0.082764
 O         3.594946         1.243506         0.647772
 C         3.494526        -0.054810         1.175359
 C         2.013562        -0.587102         1.171075
 H         3.172357        -3.428723        -0.113892
 H         4.184898        -2.488277        -1.051223
 H         4.549450        -2.707774         0.750143
 H        -0.170607         1.094233        -1.114364
 H        -0.158429        -0.697221        -1.058083
 H        -0.412352         0.108649         0.477026
 H         2.555554         1.922867        -1.104456
 H         1.795625         2.363116         0.408080
 H         4.087047        -0.327820         2.084716
 H         1.240243        -0.880548         1.900590
