19
Iteration:  3757
 C         3.683307        -2.690281         0.027676
 C         3.062595        -1.253424         0.248228
 O         2.439631        -0.631136        -0.940185
 C         1.590839         0.260769        -0.072360
 C         0.113983         0.133425        -0.479377
 C         2.318931         1.577290        -0.034492
 O         3.604280         1.287890         0.531999
 C         3.545515         0.014958         1.147002
 C         2.129532        -0.573593         1.172681
 H         3.153439        -3.287246        -0.788072
 H         4.610025        -2.577645        -0.430943
 H         3.822008        -3.237697         0.985202
 H        -0.481245         0.836199         0.192862
 H         0.080099         0.461767        -1.505659
 H        -0.220009        -0.895348        -0.340880
 H         2.534050         1.995180        -1.037470
 H         1.889784         2.338954         0.661428
 H         4.224703        -0.240735         1.938979
 H         1.400766        -0.931663         1.861881
