19
Iteration:  2005
 C         3.759240        -2.541865        -0.115003
 C         3.168786        -1.137517         0.113235
 O         2.432930        -0.531156        -0.965089
 C         1.593159         0.239253        -0.048459
 C         0.058874        -0.012195        -0.227090
 C         2.200396         1.612467         0.142760
 O         3.636531         1.207100         0.481834
 C         3.509725        -0.092749         1.035536
 C         2.123285        -0.594309         1.164371
 H         3.270879        -2.728820        -1.044991
 H         4.852473        -2.601759        -0.374659
 H         3.620829        -3.366205         0.585955
 H         0.094077        -0.894436        -0.924828
 H        -0.440400        -0.294312         0.719784
 H        -0.402072         0.775158        -0.842404
 H         2.293845         2.172403        -0.786814
 H         1.794631         2.345136         0.889389
 H         4.266662        -0.370017         1.758187
 H         1.629329        -0.926934         2.082086
