19
Iteration:  2840
 C         3.708473        -2.521880        -0.086194
 C         3.044541        -1.239547         0.140455
 O         2.408398        -0.651653        -0.928083
 C         1.607722         0.202917        -0.042096
 C         0.213184         0.116007        -0.527207
 C         2.284131         1.602984         0.055039
 O         3.603372         1.272451         0.642733
 C         3.510478        -0.085302         1.128658
 C         2.098669        -0.582797         1.191338
 H         3.100208        -3.176608        -0.745724
 H         4.670462        -2.356850        -0.446948
 H         3.752787        -3.008658         0.897593
 H         0.102270        -0.973335        -0.773769
 H        -0.546464         0.356597         0.188567
 H         0.050710         0.851932        -1.417869
 H         2.426548         1.997922        -0.912799
 H         1.691018         2.235815         0.784819
 H         4.366439        -0.171202         1.761561
 H         1.641740        -1.000024         2.031891
