19
Iteration:  2644
 C         3.752688        -2.566280        -0.075443
 C         3.127009        -1.225550         0.043168
 O         2.378562        -0.565912        -1.020203
 C         1.555056         0.172667        -0.073548
 C         0.196682         0.175353        -0.562347
 C         2.180014         1.515035         0.250218
 O         3.549920         1.316036         0.826114
 C         3.560664        -0.028069         1.072035
 C         2.193328        -0.727158         1.101791
 H         3.251554        -3.192167        -0.897347
 H         4.748804        -2.232191        -0.424298
 H         3.764454        -3.145319         0.865815
 H         0.231326         0.467969        -1.626310
 H        -0.231556        -0.839073        -0.573442
 H        -0.352659         0.956812         0.024061
 H         2.400754         2.028765        -0.653923
 H         1.538749         2.158216         0.846166
 H         4.514735        -0.236106         1.633404
 H         1.540938        -1.162330         1.965287
