19
Iteration:  1662charge 0 multiplicity 1
 C         3.678499        -2.549823        -0.028472
 C         3.069483        -1.148499         0.148978
 O         2.344014        -0.516225        -1.035026
 C         1.576258         0.159502         0.061234
 C         0.111722        -0.156330         0.019794
 C         2.202587         1.565270         0.054744
 O         3.573620         1.260652         0.234004
 C         3.646123         0.023697         0.852863
 C         2.346238        -0.482267         1.247057
 H         4.781028        -2.583525         0.276112
 H         3.170258        -3.233997         0.650452
 H         3.459945        -3.018287        -1.002056
 H        -0.057289        -0.728740        -0.933816
 H        -0.240313        -0.734341         0.913970
 H        -0.496650         0.821145        -0.042989
 H         1.941055         2.141763        -0.834337
 H         2.012339         2.137496         0.972935
 H         4.460482        -0.236192         1.460414
 H         1.768314        -0.808926         2.179299
