19
Iteration:  4533charge 0 multiplicity 1
 C         3.857941        -2.516447        -0.144857
 C         3.093799        -1.253314         0.210832
 O         2.354236        -0.686633        -0.930942
 C         1.544024         0.158560        -0.084685
 C         0.128479         0.193076        -0.527279
 C         2.437764         1.542847        -0.019070
 O         3.621060         1.168827         0.684781
 C         3.437933        -0.101746         1.181681
 C         1.974719        -0.420973         1.219316
 H         3.637898        -3.100489        -1.124236
 H         4.767958        -2.137060        -0.509621
 H         4.215104        -2.935752         0.730969
 H         0.223737        -0.008469        -1.556964
 H        -0.590837        -0.578461        -0.055825
 H        -0.290188         1.096686        -0.219503
 H         2.706829         2.002881        -0.986762
 H         1.862788         2.337784         0.581033
 H         3.964341        -0.327244         2.164387
 H         1.248154        -0.700416         2.008432
