19
Iteration:  2364charge 0 multiplicity 1
 C         3.792063        -2.522044        -0.160950
 C         3.110683        -1.165475         0.067243
 O         2.470497        -0.439521        -1.060277
 C         1.559520         0.250597        -0.095329
 C         0.134774         0.143238        -0.541031
 C         2.186325         1.584118         0.265770
 O         3.582989         1.210821         0.789188
 C         3.509601        -0.223655         1.164593
 C         2.134755        -0.755896         1.114845
 H         3.292240        -3.460290         0.003965
 H         4.276479        -2.375248        -1.176248
 H         4.696305        -2.499737         0.492904
 H        -0.276340         1.029179        -1.049916
 H        -0.187879        -0.746371        -1.090534
 H        -0.477868         0.016499         0.438658
 H         2.269328         2.196010        -0.710528
 H         1.748977         2.194076         1.106078
 H         4.224729        -0.454791         1.875619
 H         1.497986        -1.369945         1.785430
