19
Iteration:   317charge 0 multiplicity 1
 C         3.449398        -2.548390         0.064593
 C         3.245957        -1.112083         0.158635
 O         2.180554        -0.865837        -0.813274
 C         1.576210         0.135905         0.179730
 C         0.045295        -0.179651         0.129580
 C         2.111763         1.530711        -0.148063
 O         3.610679         1.423109         0.002818
 C         3.856014         0.227148         0.750586
 C         2.569265        -0.418985         1.241830
 H         3.892970        -2.944840         1.064132
 H         2.427277        -2.970231        -0.154480
 H         4.065999        -2.864204        -0.763851
 H        -0.485983         0.684388        -0.318318
 H        -0.044540        -1.173853        -0.362663
 H        -0.501824        -0.282945         1.148087
 H         1.894498         1.869092        -1.158822
 H         1.715326         2.299359         0.581858
 H         4.795538         0.234284         1.187193
 H         2.389118        -0.782426         2.319992
