19
Iteration:  4405
 C         3.642152        -2.538450        -0.009010
 C         3.021348        -1.222431         0.348220
 O         2.460364        -0.584701        -0.882658
 C         1.612774         0.249150        -0.010567
 C         0.141194         0.078303        -0.559270
 C         2.328860         1.577318        -0.100731
 O         3.695239         1.240351         0.550153
 C         3.562680        -0.066284         1.125544
 C         1.982439        -0.601149         1.196338
 H         2.999559        -3.335266        -0.326120
 H         4.393188        -2.146854        -0.754614
 H         4.224348        -2.943048         0.781926
 H        -0.677912         0.364188         0.096466
 H         0.255564         0.657073        -1.574228
 H        -0.046492        -0.975568        -0.717439
 H         2.371968         1.751862        -1.188271
 H         1.808375         2.280295         0.471458
 H         4.412229        -0.287471         1.799690
 H         1.326056        -0.973065         1.971538
