19
Iteration:  2507
 C         4.046159        -2.410132        -0.196605
 C         3.154114        -1.253561         0.066126
 O         2.449625        -0.628480        -1.012179
 C         1.533283         0.170778        -0.041512
 C         0.070498         0.460107        -0.440169
 C         2.149846         1.448644         0.114851
 O         3.497983         1.244046         0.779721
 C         3.431081        -0.164871         1.161090
 C         2.123752        -0.850609         1.110380
 H         3.534127        -3.215315        -0.595273
 H         4.983816        -2.194615        -0.699423
 H         4.222046        -2.927323         0.739708
 H        -0.635110         0.168598         0.360203
 H        -0.033533         1.564535        -0.492790
 H        -0.144705         0.087377        -1.516876
 H         2.369593         1.814193        -0.930159
 H         1.705343         2.204535         0.718295
 H         4.230135        -0.254258         2.002760
 H         1.547555        -1.312462         1.964104
