19
Iteration:    72charge 0 multiplicity 1
 C         3.983742        -2.469037        -0.191338
 C         3.199068        -1.234310         0.241390
 O         2.133406        -0.923456        -0.749074
 C         1.515752         0.017361         0.148017
 C         0.076449         0.329235         0.104492
 C         2.184965         1.403992        -0.326470
 O         3.500196         1.291603         0.143569
 C         3.620174         0.105596         0.877621
 C         2.342466        -0.470848         1.377641
 H         4.745361        -2.674915         0.569205
 H         3.344490        -3.389216        -0.176134
 H         4.459176        -2.224315        -1.194205
 H        -0.161871         1.434711        -0.021108
 H        -0.445899        -0.225783        -0.713387
 H        -0.494309         0.163992         1.058872
 H         2.125072         1.450076        -1.443706
 H         1.635397         2.294206         0.086131
 H         4.512169         0.006730         1.416887
 H         2.112131        -0.328845         2.441553
