19
Iteration:  2842charge 0 multiplicity 1
 C         3.715240        -2.537439        -0.065598
 C         3.051575        -1.235913         0.151858
 O         2.403862        -0.663952        -0.925382
 C         1.627269         0.208987        -0.053027
 C         0.194069         0.130165        -0.529802
 C         2.286469         1.606699         0.055726
 O         3.592709         1.283737         0.643292
 C         3.515978        -0.091280         1.116958
 C         2.094739        -0.597943         1.183611
 H         3.088846        -3.057191        -0.783888
 H         4.691730        -2.330280        -0.494557
 H         3.840916        -3.066625         0.897434
 H         0.036801        -0.945509        -0.825268
 H        -0.584180         0.368188         0.207072
 H         0.023042         0.924832        -1.345792
 H         2.477313         2.012486        -0.939622
 H         1.637750         2.223554         0.767419
 H         4.368752        -0.216796         1.792858
 H         1.699846        -1.032481         2.043128
