19
Iteration:  4123
 C         3.692500        -2.570107        -0.077625
 C         3.196520        -1.236607         0.265306
 O         2.381670        -0.649514        -0.954748
 C         1.539096         0.162365        -0.085916
 C         0.113238         0.137654        -0.518860
 C         2.350126         1.527194        -0.005828
 O         3.702695         1.231708         0.615098
 C         3.518367        -0.029722         1.147750
 C         2.013507        -0.468418         1.245804
 H         2.933264        -2.983992        -0.714905
 H         4.811366        -2.505542        -0.478602
 H         3.689640        -3.248978         0.730815
 H        -0.426658         1.121818        -0.459169
 H         0.334893        -0.096179        -1.638206
 H        -0.577316        -0.585297        -0.082896
 H         2.527271         1.805534        -1.075046
 H         1.647834         2.237918         0.539970
 H         4.298789        -0.129872         1.943248
 H         1.386756        -0.604247         2.145700
