19
Iteration:   397charge 0 multiplicity 1
 C         3.864680        -2.452348        -0.021762
 C         3.078351        -1.186149         0.134088
 O         2.081582        -0.932818        -0.856838
 C         1.511207         0.150754         0.180611
 C        -0.070682         0.092269         0.136920
 C         2.205771         1.482421        -0.133365
 O         3.653597         1.358037         0.130063
 C         3.742894         0.073872         0.745499
 C         2.460798        -0.429113         1.251116
 H         4.682675        -2.542514         0.689719
 H         3.161175        -3.376333         0.208503
 H         4.341437        -2.584067        -1.022845
 H        -0.405590        -0.069609        -0.895318
 H        -0.357227        -0.807804         0.670756
 H        -0.427405         0.982093         0.645666
 H         1.972792         1.641769        -1.204254
 H         1.909881         2.362677         0.498778
 H         4.738431         0.053204         1.372871
 H         2.147463        -0.651124         2.249335
