19
Iteration:  1947charge 0 multiplicity 1
 C         3.985680        -2.506848        -0.130106
 C         3.121123        -1.207014         0.080227
 O         2.271062        -0.762722        -0.948385
 C         1.550364         0.127571         0.030217
 C         0.030514         0.372223        -0.252931
 C         2.203961         1.456968         0.045175
 O         3.484526         1.285728         0.522644
 C         3.650157        -0.040453         0.997549
 C         2.252776        -0.671648         1.246124
 H         4.768690        -2.272310        -0.929259
 H         4.442219        -2.665809         0.840454
 H         3.387872        -3.275825        -0.671004
 H        -0.259111        -0.188360        -1.129844
 H        -0.787992         0.200579         0.471671
 H        -0.120400         1.418291        -0.517495
 H         2.281933         1.750670        -1.016406
 H         1.621335         2.167494         0.689278
 H         4.300513        -0.140527         1.864885
 H         1.786069        -1.144101         2.131527
