19
Iteration:  4119charge 0 multiplicity 1
 C         3.668640        -2.552195        -0.065851
 C         3.189851        -1.225005         0.244447
 O         2.424053        -0.655348        -0.943714
 C         1.538524         0.180349        -0.068594
 C         0.100495         0.141508        -0.518245
 C         2.324726         1.492611        -0.029747
 O         3.688151         1.252056         0.619356
 C         3.535922        -0.035527         1.133552
 C         2.042833        -0.495051         1.234300
 H         2.866946        -3.049007        -0.666922
 H         4.654899        -2.523100        -0.451520
 H         3.651362        -3.204495         0.843067
 H        -0.322939         1.110424        -0.470505
 H         0.177886         0.010635        -1.635146
 H        -0.527496        -0.679011        -0.118098
 H         2.517334         1.983436        -0.991457
 H         1.788901         2.235926         0.524047
 H         4.202124        -0.241105         2.004877
 H         1.441418        -0.676197         2.115608
