19
Iteration:  4529
 C         3.849051        -2.518670        -0.110621
 C         3.069666        -1.237819         0.230447
 O         2.348276        -0.642689        -0.929959
 C         1.548487         0.151254        -0.117207
 C         0.140005         0.164225        -0.501704
 C         2.424744         1.545268        -0.012420
 O         3.611106         1.183569         0.676803
 C         3.457624        -0.162467         1.159922
 C         1.981839        -0.423721         1.207322
 H         3.631003        -3.057662        -0.964707
 H         4.751502        -1.986612        -0.559222
 H         4.244377        -3.070287         0.810741
 H         0.233340         0.260037        -1.656595
 H        -0.398379        -0.658250        -0.078874
 H        -0.358216         1.159861        -0.242142
 H         2.754893         1.913397        -0.973535
 H         1.857549         2.250749         0.543519
 H         4.031209        -0.380451         2.032462
 H         1.289753        -0.712709         1.995341
