19
Iteration:  4063charge 0 multiplicity 1
 C         3.614830        -2.596546         0.233903
 C         3.144786        -1.206268         0.162220
 O         2.488372        -0.639109        -1.061451
 C         1.606972         0.267490        -0.204913
 C         0.057939         0.165673        -0.510465
 C         2.290954         1.562343         0.122323
 O         3.623980         1.260048         0.600488
 C         3.536693        -0.108987         1.050904
 C         2.130456        -0.585800         1.084482
 H         2.822129        -3.367435         0.385695
 H         4.057709        -2.916844        -0.636863
 H         4.375031        -2.471146         1.069110
 H        -0.470890         0.176821         0.477472
 H        -0.390487         0.926387        -1.108836
 H        -0.075878        -0.804238        -1.016515
 H         2.661904         2.170334        -0.698029
 H         1.845571         2.174868         0.870956
 H         4.182781        -0.231675         1.879717
 H         1.658981        -0.969518         1.997265
