19
Iteration:   501
 C         3.706740        -2.546506         0.146874
 C         3.123702        -1.193579         0.122562
 O         2.200814        -0.709655        -0.890797
 C         1.489087         0.177713         0.078677
 C         0.036721        -0.073988         0.257501
 C         2.141910         1.571504        -0.100706
 O         3.607400         1.287878        -0.017000
 C         3.759574         0.096124         0.705318
 C         2.474187        -0.453323         1.221389
 H         4.236065        -2.742725         1.192760
 H         2.890295        -3.290085         0.126160
 H         4.484502        -2.770295        -0.702219
 H        -0.515068         0.511006        -0.495217
 H        -0.193469        -1.165500         0.270062
 H        -0.242680         0.413629         1.229232
 H         2.053535         1.761250        -1.230772
 H         1.640901         2.427516         0.473987
 H         4.687628        -0.045836         1.314353
 H         2.290661        -0.687132         2.257846
