19
Iteration:  1167
 C         3.932698        -2.540752         0.154883
 C         3.107606        -1.240248         0.202602
 O         2.113996        -0.882137        -0.914387
 C         1.511885         0.169803         0.104294
 C         0.003468         0.107912         0.272310
 C         2.194991         1.518130        -0.211292
 O         3.563683         1.297514        -0.008136
 C         3.705638         0.085845         0.730064
 C         2.404521        -0.372632         1.189698
 H         4.927486        -2.273151         0.486780
 H         3.610554        -3.358140         0.902684
 H         4.014116        -3.054263        -0.840509
 H        -0.500453        -0.083128        -0.681663
 H        -0.328165        -0.729637         0.884807
 H        -0.236921         1.015079         0.875408
 H         1.971772         1.867612        -1.244589
 H         1.963529         2.310801         0.477970
 H         4.413204         0.010020         1.539308
 H         2.033465        -0.497215         2.139310
