19
Iteration:  3499
 C         3.691911        -2.531120         0.069504
 C         3.070169        -1.199678         0.128331
 O         2.462015        -0.634217        -0.980973
 C         1.640838         0.304319        -0.046583
 C         0.183605         0.089046        -0.521421
 C         2.352123         1.611604         0.095456
 O         3.596613         1.161575         0.573812
 C         3.471530        -0.142699         1.080900
 C         2.005427        -0.511381         1.149239
 H         2.985147        -3.267812         0.011957
 H         4.322214        -2.601854        -0.839775
 H         4.210350        -2.514034         1.048111
 H        -0.163487         0.744831        -1.412957
 H         0.286488        -0.902334        -0.915879
 H        -0.583112         0.058427         0.287422
 H         2.524481         2.181957        -0.796753
 H         1.729123         2.129200         0.814068
 H         4.276968        -0.394113         1.828672
 H         1.538578        -0.717256         2.138861
