19
Iteration:  3063charge 0 multiplicity 1
 C         3.820778        -2.460808        -0.002925
 C         3.082966        -1.200409         0.296403
 O         2.512851        -0.641545        -0.946623
 C         1.572963         0.084841        -0.086794
 C         0.167470         0.367017        -0.499256
 C         2.287498         1.450186        -0.125336
 O         3.610734         1.175134         0.584845
 C         3.415547        -0.120472         1.240470
 C         1.961191        -0.580316         1.153644
 H         3.275146        -3.290928        -0.323417
 H         4.551283        -2.294728        -0.843214
 H         4.471361        -2.737441         0.815496
 H        -0.018428         1.414712        -0.845560
 H        -0.069884        -0.503479        -1.250897
 H        -0.517340         0.177522         0.342136
 H         2.338774         1.886736        -1.159328
 H         1.759638         2.254580         0.405953
 H         4.094289        -0.227630         2.076946
 H         1.488086        -1.107328         1.977588
