19
Iteration:  2794
 C         3.578087        -2.604132        -0.061640
 C         3.115780        -1.152318         0.129125
 O         2.618732        -0.494119        -0.990024
 C         1.655310         0.243735        -0.107730
 C         0.077650        -0.063762        -0.455904
 C         2.263281         1.626968         0.187529
 O         3.594611         1.265798         0.567626
 C         3.568099        -0.038466         1.155048
 C         2.083909        -0.658091         1.106515
 H         2.696834        -3.227856        -0.363418
 H         4.406699        -2.628860        -0.773489
 H         3.902757        -2.898780         0.924559
 H        -0.316750        -0.641633         0.380901
 H        -0.528764         0.886512        -0.559820
 H        -0.114595        -0.449797        -1.477950
 H         2.459175         2.203007        -0.725846
 H         1.695816         2.075277         1.048869
 H         4.084767        -0.241876         2.133698
 H         1.260633        -1.065613         1.847630
