19
Iteration:  2068charge 0 multiplicity 1
 C         3.642907        -2.568244        -0.134087
 C         3.130905        -1.231082         0.063196
 O         2.397081        -0.587458        -1.043767
 C         1.577431         0.142381        -0.028368
 C         0.174631         0.053443        -0.377338
 C         2.171746         1.590446         0.222069
 O         3.566378         1.369117         0.697704
 C         3.600030        -0.005810         1.065380
 C         2.273813        -0.664979         1.105333
 H         3.126643        -3.297871         0.576157
 H         3.404501        -2.719270        -1.226636
 H         4.787572        -2.694096        -0.078310
 H        -0.403872        -0.666820         0.225836
 H        -0.393139         0.995999        -0.332426
 H         0.154138        -0.296617        -1.388744
 H         2.357400         2.039993        -0.768928
 H         1.567826         2.186626         0.900588
 H         4.396398        -0.120512         1.765846
 H         1.782693        -1.125314         1.988091
