19
Iteration:  4092charge 0 multiplicity 1
 C         3.592498        -2.641776         0.143085
 C         3.088923        -1.241143         0.200731
 O         2.499935        -0.561065        -1.059874
 C         1.638056         0.234550        -0.117627
 C         0.216175         0.161369        -0.439146
 C         2.246595         1.559893         0.014694
 O         3.551788         1.258389         0.573326
 C         3.542993        -0.048128         1.110945
 C         2.119024        -0.655121         1.163861
 H         2.822365        -3.345045        -0.134319
 H         4.467728        -2.725126        -0.606599
 H         3.918529        -2.884448         1.160987
 H        -0.337400         1.018664         0.061737
 H         0.084577         0.503373        -1.480565
 H        -0.155294        -0.849198        -0.411122
 H         2.510113         2.115010        -0.931110
 H         1.715758         2.423191         0.611170
 H         4.404036        -0.121712         1.777794
 H         1.464402        -1.131277         1.932642
