19
Iteration:  3803charge 0 multiplicity 1
 C         3.829148        -2.570880         0.198951
 C         3.020933        -1.270363         0.199118
 O         2.366428        -0.781549        -1.088947
 C         1.604833         0.218450        -0.078753
 C         0.095752         0.387608        -0.463669
 C         2.305742         1.544643        -0.010895
 O         3.601184         1.267391         0.560788
 C         3.558854        -0.050449         1.109475
 C         2.108425        -0.617797         1.151694
 H         3.249870        -3.512597         0.078586
 H         4.535859        -2.666642        -0.652044
 H         4.386351        -2.490070         1.193106
 H        -0.630144         0.088900         0.359074
 H        -0.091304         1.385003        -0.746265
 H         0.017256        -0.293361        -1.301715
 H         2.329348         1.816239        -1.027691
 H         1.645607         2.186804         0.600956
 H         4.367194        -0.337721         1.844651
 H         1.473492        -1.052216         1.942395
