19
Iteration:  1420
 C         3.961785        -2.403438         0.087133
 C         3.013322        -1.192548         0.176824
 O         2.147326        -0.842874        -0.863048
 C         1.575642         0.173415         0.107377
 C         0.029424         0.100218         0.238049
 C         2.212672         1.513519        -0.202144
 O         3.603331         1.202360        -0.017998
 C         3.638418         0.025103         0.759607
 C         2.355169        -0.395436         1.271950
 H         5.024186        -2.158500        -0.002301
 H         3.791330        -3.175218         0.888241
 H         3.702867        -3.089981        -0.679498
 H        -0.191267        -1.017780         0.204715
 H        -0.431584         0.455269         1.222856
 H        -0.623415         0.578680        -0.521595
 H         2.035852         1.962794        -1.218710
 H         1.801895         2.342681         0.477074
 H         4.493873        -0.324595         1.303519
 H         1.992722        -0.583680         2.251681
