19
Iteration:  3812
 C         3.859550        -2.623471         0.188882
 C         3.107755        -1.268267         0.155298
 O         2.402572        -0.791690        -1.064672
 C         1.570835         0.237563        -0.054525
 C         0.090849         0.355647        -0.437838
 C         2.324066         1.553509        -0.003264
 O         3.595668         1.304992         0.522684
 C         3.445701        -0.119821         1.103817
 C         2.079404        -0.579469         1.131298
 H         3.275334        -3.590974         0.313245
 H         4.438176        -2.613065        -0.636406
 H         4.566569        -2.651783         1.059496
 H        -0.647259         0.037254         0.392431
 H        -0.173490         1.379785        -0.578824
 H        -0.123880        -0.105687        -1.391170
 H         2.512375         2.052771        -0.946430
 H         1.922720         2.372503         0.526018
 H         4.012881        -0.385314         2.000242
 H         1.556448        -0.787954         2.037126
