19
Iteration:  3557
 C         3.587716        -2.619190         0.025998
 C         3.121808        -1.221832         0.207279
 O         2.553501        -0.658367        -0.996212
 C         1.676470         0.160812        -0.022492
 C         0.204872         0.201569        -0.484339
 C         2.174416         1.608554         0.089039
 O         3.491302         1.300043         0.613013
 C         3.577399        -0.078502         1.040770
 C         2.135091        -0.592579         1.122910
 H         2.828539        -3.132103        -0.629554
 H         4.675463        -2.676468        -0.259764
 H         3.600953        -3.341923         0.835284
 H         0.261586         0.083801        -1.576319
 H        -0.549276        -0.495556         0.002997
 H        -0.190269         1.253330        -0.290487
 H         2.323504         2.057082        -0.969942
 H         1.527124         2.306770         0.589923
 H         4.321917        -0.258593         1.774890
 H         1.805856        -0.972360         2.023437
