19
Iteration:  1276charge 0 multiplicity 1
 C         3.689110        -2.633651         0.253112
 C         3.207028        -1.120097         0.163042
 O         2.225883        -0.786519        -0.810782
 C         1.495365         0.131847         0.080466
 C         0.050294        -0.007184         0.225223
 C         2.112495         1.494813        -0.168991
 O         3.519557         1.302207        -0.101486
 C         3.798462         0.153263         0.636591
 C         2.480316        -0.372319         1.222140
 H         3.718632        -2.814261         1.307452
 H         3.075569        -3.403156        -0.368792
 H         4.745338        -2.717198        -0.090283
 H        -0.526364         0.938175         0.007684
 H        -0.327051        -0.895153        -0.359244
 H        -0.254336        -0.175792         1.313727
 H         1.910386         1.913627        -1.195851
 H         1.831019         2.300462         0.539049
 H         4.627579         0.112199         1.308190
 H         2.322725        -0.673401         2.283924
