19
Iteration:  4317charge 0 multiplicity 1
 C         3.710356        -2.582011         0.210642
 C         3.147165        -1.244306         0.170499
 O         2.405307        -0.638101        -1.005621
 C         1.568336         0.171618        -0.095911
 C         0.054853         0.259023        -0.519727
 C         2.307875         1.491884         0.025919
 O         3.635774         1.261782         0.589328
 C         3.558208        -0.054742         1.002898
 C         2.116360        -0.556268         1.161522
 H         3.036416        -3.410681        -0.116099
 H         4.661532        -2.668709        -0.368904
 H         3.905504        -2.673119         1.251052
 H        -0.493288        -0.203324         0.248146
 H        -0.331696         1.291638        -0.859583
 H        -0.156970        -0.394725        -1.386331
 H         2.534693         1.877504        -0.958527
 H         1.748665         2.197363         0.689129
 H         4.279307        -0.123733         1.785978
 H         1.654502        -1.096780         2.018826
