19
Iteration:  3756
 C         3.677763        -2.696582         0.023296
 C         3.058074        -1.254561         0.255860
 O         2.442862        -0.623046        -0.932735
 C         1.597298         0.263702        -0.082697
 C         0.114107         0.123674        -0.472464
 C         2.327379         1.586124        -0.033526
 O         3.600156         1.288239         0.529324
 C         3.548237         0.016065         1.145906
 C         2.125743        -0.572919         1.168879
 H         3.144630        -3.281303        -0.787356
 H         4.620974        -2.555675        -0.406002
 H         3.833991        -3.235407         0.948870
 H        -0.450319         0.833213         0.187523
 H         0.096394         0.444527        -1.534974
 H        -0.250278        -0.904282        -0.302819
 H         2.529941         1.987812        -1.077484
 H         1.850599         2.299147         0.674942
 H         4.208778        -0.267615         1.938503
 H         1.396589        -0.949220         1.869230
