19
Iteration:  1065
 C         3.789183        -2.459083         0.186128
 C         3.064822        -1.097281         0.143574
 O         2.043686        -0.775585        -0.898987
 C         1.559853         0.157507         0.111669
 C         0.049594        -0.107364         0.334675
 C         2.253449         1.511623        -0.243712
 O         3.663148         1.270412        -0.081339
 C         3.723908         0.060868         0.731326
 C         2.367767        -0.382056         1.250876
 H         4.005589        -2.753892         1.267354
 H         3.185060        -3.203493        -0.269900
 H         4.745858        -2.496408        -0.385831
 H        -0.538527         0.464968        -0.389691
 H        -0.037889        -1.211112         0.364661
 H        -0.203093         0.352261         1.311377
 H         2.075213         1.770632        -1.264731
 H         1.886393         2.301681         0.396011
 H         4.668116        -0.013833         1.253004
 H         2.241467        -0.741508         2.317102
