19
Iteration:  3958
 C         3.768840        -2.594826         0.234872
 C         3.011172        -1.275184         0.175209
 O         2.446746        -0.678305        -1.004390
 C         1.555023         0.222164        -0.110499
 C         0.075297         0.232117        -0.431038
 C         2.338640         1.545347        -0.092487
 O         3.721945         1.277504         0.577064
 C         3.516563        -0.097116         1.014039
 C         1.997444        -0.519459         1.152911
 H         3.183320        -3.372505        -0.130099
 H         4.836356        -2.468798        -0.105334
 H         3.829001        -2.995298         1.218064
 H        -0.030132        -0.683031        -0.918770
 H        -0.466053         0.235910         0.558624
 H        -0.344237         1.013053        -1.119616
 H         2.577261         2.008512        -1.049397
 H         1.882614         2.353753         0.525451
 H         4.258596        -0.193638         1.754337
 H         1.471640        -1.045708         1.898508
