19
Iteration:   283
 C         3.908064        -2.507141         0.033138
 C         3.110075        -1.282247         0.173111
 O         2.124504        -0.808872        -0.787719
 C         1.522754         0.216685         0.109917
 C         0.013603         0.138791         0.243721
 C         2.154665         1.493818        -0.249594
 O         3.524187         1.277829         0.035536
 C         3.750342         0.063648         0.750472
 C         2.434998        -0.492906         1.240842
 H         4.398323        -2.638304         1.062843
 H         3.277855        -3.394185        -0.063177
 H         4.691273        -2.342424        -0.757040
 H        -0.604535         0.935851        -0.294973
 H        -0.404635        -0.768713        -0.261282
 H        -0.219210         0.115007         1.370830
 H         1.988643         1.685290        -1.322637
 H         1.869462         2.380394         0.362337
 H         4.765839         0.017118         1.072508
 H         2.164239        -0.471766         2.345821
