19
Iteration:   416
 C         3.942212        -2.453208        -0.113444
 C         3.132544        -1.224697         0.220695
 O         2.049952        -0.902872        -0.703442
 C         1.549149         0.082358         0.126133
 C         0.075048         0.278698         0.121408
 C         2.117461         1.442054        -0.297883
 O         3.510708         1.349634         0.144765
 C         3.698314         0.018138         0.733936
 C         2.437312        -0.540251         1.395396
 H         4.819866        -2.497931         0.556756
 H         3.440545        -3.357188        -0.413594
 H         4.385810        -2.169082        -1.013801
 H        -0.120640         0.221144        -0.950606
 H        -0.556146        -0.475651         0.622839
 H        -0.181171         1.265835         0.537310
 H         2.223494         1.669574        -1.346232
 H         1.702859         2.250928         0.247654
 H         4.747932         0.007699         1.159982
 H         2.176397        -0.716409         2.418058
