19
Iteration:  3233
 C         3.826964        -2.505536        -0.001273
 C         3.002660        -1.245440         0.231995
 O         2.411417        -0.656599        -0.895668
 C         1.617881         0.177141        -0.036840
 C         0.144575         0.246001        -0.650104
 C         2.295012         1.530750         0.011245
 O         3.599481         1.237356         0.600157
 C         3.485679        -0.089385         1.137616
 C         2.074854        -0.610599         1.207202
 H         3.174675        -3.304043        -0.450137
 H         4.551012        -2.190479        -0.670082
 H         4.302323        -2.926908         0.849579
 H         0.276892         0.666477        -1.644773
 H        -0.181633        -0.826547        -0.702016
 H        -0.586527         0.897140        -0.115937
 H         2.399790         2.049422        -0.959341
 H         1.723017         2.209904         0.772969
 H         4.264992        -0.389023         1.836651
 H         1.578255        -0.920485         2.136890
