19
Iteration:  1234charge 0 multiplicity 1
 C         3.906862        -2.517147        -0.009068
 C         3.142728        -1.206003         0.202580
 O         2.033409        -0.966550        -0.594038
 C         1.580932         0.143577         0.200595
 C        -0.012505         0.115767         0.069764
 C         2.189355         1.442061        -0.308332
 O         3.568996         1.350374         0.033312
 C         3.742018         0.107502         0.649808
 C         2.477131        -0.326208         1.350202
 H         4.342724        -2.726959         0.947989
 H         2.974226        -3.202370        -0.227775
 H         4.515714        -2.587294        -0.918995
 H        -0.485326         0.960476        -0.502352
 H        -0.334128        -0.818334        -0.487133
 H        -0.369208         0.083481         1.120281
 H         2.035283         1.533271        -1.418591
 H         1.666505         2.261333         0.108582
 H         4.638530         0.298462         1.174574
 H         2.104470        -0.468489         2.420011
