19
Iteration:  4407charge 0 multiplicity 1
 C         3.623012        -2.541462         0.000517
 C         3.029685        -1.211208         0.342428
 O         2.463871        -0.578668        -0.888800
 C         1.616074         0.239397        -0.019560
 C         0.134387         0.075029        -0.573775
 C         2.312188         1.593239        -0.088514
 O         3.695975         1.234841         0.557108
 C         3.579830        -0.068808         1.115720
 C         1.995578        -0.599907         1.210844
 H         2.989616        -3.339151        -0.340316
 H         4.376743        -2.183581        -0.836745
 H         4.262157        -2.945476         0.835530
 H        -0.743770         0.395238         0.103070
 H         0.282762         0.536905        -1.589186
 H        -0.109004        -1.002652        -0.706495
 H         2.410760         1.705067        -1.188447
 H         1.803728         2.372851         0.510571
 H         4.411280        -0.309678         1.834587
 H         1.323504        -0.962733         1.959085
