19
Iteration:  1759charge 0 multiplicity 1
 C         3.968163        -2.375145        -0.202038
 C         3.103033        -1.206035         0.159166
 O         2.257808        -0.662193        -0.930512
 C         1.525811         0.150728        -0.022850
 C        -0.047532         0.116539         0.084324
 C         2.266396         1.500913        -0.157354
 O         3.669998         1.204576         0.452566
 C         3.581599        -0.084657         0.981549
 C         2.166200        -0.525349         1.179506
 H         3.645486        -2.999631        -1.097812
 H         5.012388        -2.102580        -0.367746
 H         3.929756        -3.011942         0.681408
 H        -0.220386        -0.941530         0.301906
 H        -0.538829         0.777127         0.767242
 H        -0.363274         0.232435        -0.959948
 H         2.426698         1.763151        -1.233088
 H         1.718930         2.284686         0.460311
 H         4.210941        -0.167576         1.825672
 H         1.617241        -0.842059         2.112442
