19
Iteration:  3840charge 0 multiplicity 1
 C         3.728479        -2.526320         0.097692
 C         3.021047        -1.205277         0.291593
 O         2.469299        -0.664547        -0.983207
 C         1.623626         0.210130        -0.152089
 C         0.080457         0.217095        -0.429918
 C         2.340225         1.461203        -0.091387
 O         3.636134         1.199471         0.485735
 C         3.502904        -0.086016         1.193950
 C         2.058249        -0.515400         1.186854
 H         3.144401        -3.380096         0.422529
 H         4.171150        -2.527739        -0.998771
 H         4.640292        -2.589043         0.697682
 H        -0.449858        -0.556458         0.068071
 H        -0.345474         1.242080        -0.158392
 H        -0.193276         0.121104        -1.506262
 H         2.650231         1.959824        -1.049837
 H         1.902941         2.276769         0.561418
 H         4.242248        -0.327486         1.938107
 H         1.343415        -0.851370         1.939308
