19
Iteration:  2599charge 0 multiplicity 1
 C         3.599663        -2.561826        -0.158553
 C         3.153680        -1.156449         0.091139
 O         2.645456        -0.335257        -1.086767
 C         1.668639         0.149339        -0.111681
 C         0.172732        -0.012299        -0.458614
 C         2.233023         1.569280         0.222898
 O         3.496875         1.270482         0.743382
 C         3.489391        -0.082658         1.178092
 C         2.107368        -0.720438         1.103440
 H         2.615205        -3.155693        -0.213940
 H         4.271808        -2.715696        -1.007968
 H         3.984160        -3.035157         0.755864
 H        -0.150115        -0.829396        -1.141736
 H        -0.299029        -0.271494         0.543105
 H        -0.209053         0.959782        -0.751797
 H         2.188735         2.039796        -0.703943
 H         1.566989         2.049850         0.945838
 H         4.198863        -0.268383         1.928755
 H         1.524559        -1.345618         1.854203
