19
Iteration:  3669
 C         3.699280        -2.598926         0.120659
 C         3.067336        -1.192806         0.201210
 O         2.417027        -0.667739        -1.067476
 C         1.612777         0.142343        -0.090356
 C         0.200110         0.295362        -0.530171
 C         2.231663         1.501467         0.087139
 O         3.561917         1.264919         0.593417
 C         3.575232        -0.048794         1.072677
 C         2.206437        -0.588343         1.187339
 H         2.915871        -3.507461         0.138399
 H         4.208902        -2.702363        -0.823735
 H         4.360824        -2.816620         0.972991
 H         0.039552         1.251576        -1.055741
 H        -0.235999        -0.406344        -1.296457
 H        -0.556668         0.261664         0.271118
 H         2.214027         2.127980        -0.848346
 H         1.545233         2.030779         0.760588
 H         4.187708        -0.252542         1.986527
 H         1.600238        -1.069725         2.011216
