19
Iteration:   700charge 0 multiplicity 1
 C         3.666243        -2.586256        -0.006373
 C         3.119427        -1.176263         0.216601
 O         2.212970        -0.725732        -0.803910
 C         1.547133         0.129910         0.092271
 C         0.017632        -0.139918         0.301528
 C         2.151481         1.575941        -0.157597
 O         3.639717         1.336222        -0.078943
 C         3.758421         0.126095         0.753693
 C         2.443541        -0.362061         1.264448
 H         4.303749        -2.954839         0.810268
 H         2.848850        -3.347750        -0.204492
 H         4.286226        -2.534107        -0.898146
 H        -0.532663         0.241323        -0.536083
 H        -0.169201        -1.143752         0.086392
 H        -0.349742         0.143353         1.282269
 H         2.062446         1.913515        -1.192427
 H         1.768707         2.298082         0.524051
 H         4.539666        -0.020499         1.426910
 H         2.202573        -0.570591         2.348782
