19
Iteration:   428
 C         4.039662        -2.381606        -0.225835
 C         3.122803        -1.270903         0.202951
 O         2.036166        -0.959120        -0.728714
 C         1.535828         0.097608         0.248027
 C         0.090956         0.353946         0.108681
 C         2.126751         1.375669        -0.330049
 O         3.506501         1.276526         0.139375
 C         3.687170         0.078725         0.850537
 C         2.429296        -0.483523         1.363135
 H         4.637768        -2.834904         0.556645
 H         3.334739        -3.244086        -0.335624
 H         4.574334        -2.113305        -1.063941
 H        -0.213733         0.514248        -0.927038
 H        -0.534395        -0.425536         0.547645
 H        -0.087247         1.328826         0.585262
 H         1.790266         1.215055        -1.343689
 H         1.704862         2.286493        -0.013631
 H         4.636710         0.046770         1.553819
 H         2.122878        -0.509212         2.373740
