19
Iteration:   582charge 0 multiplicity 1
 C         3.669526        -2.519676        -0.002548
 C         3.170614        -1.168362         0.152147
 O         2.121630        -0.716745        -0.807823
 C         1.496593         0.132921         0.205121
 C         0.055153        -0.151101         0.204569
 C         2.239805         1.536114        -0.195390
 O         3.633657         1.297100        -0.002859
 C         3.742300         0.103820         0.725305
 C         2.462021        -0.375110         1.288478
 H         4.573861        -2.577892         0.563412
 H         2.898063        -3.332503         0.269844
 H         3.941845        -2.571264        -1.037612
 H        -0.393960        -0.324012        -0.782566
 H        -0.240378        -1.099917         0.690743
 H        -0.397476         0.696843         0.717619
 H         2.081295         1.753683        -1.242374
 H         1.849543         2.396413         0.501763
 H         4.490775         0.143201         1.481973
 H         2.128578        -0.476102         2.374517
