19
Iteration:  3120
 C         3.755815        -2.480289         0.061850
 C         3.059662        -1.181774         0.138787
 O         2.349455        -0.677360        -1.025926
 C         1.581588         0.147629        -0.066375
 C         0.192049         0.189071        -0.622530
 C         2.380958         1.581221         0.070921
 O         3.554764         1.232907         0.707812
 C         3.561725        -0.078425         1.112742
 C         2.073735        -0.613663         1.172529
 H         3.052526        -3.243625         0.102640
 H         4.545075        -2.608871        -0.663689
 H         4.184798        -2.623919         1.079757
 H        -0.103995         1.113308        -1.267263
 H         0.046087        -0.694280        -1.251488
 H        -0.637291         0.055025         0.153173
 H         2.456991         1.903381        -1.022713
 H         1.768904         2.164056         0.757652
 H         4.402993        -0.342062         1.814700
 H         1.598437        -0.782325         2.090150
