19
Iteration:  4209charge 0 multiplicity 1
 C         3.750234        -2.608883         0.202303
 C         3.029646        -1.222489         0.130833
 O         2.487236        -0.722192        -1.068947
 C         1.589656         0.220536        -0.074360
 C         0.127692         0.270351        -0.464310
 C         2.285465         1.539043         0.068068
 O         3.582929         1.284965         0.616274
 C         3.536096        -0.093700         1.010156
 C         2.088655        -0.587627         1.132315
 H         2.981604        -3.377868         0.027928
 H         4.563668        -2.610416        -0.628877
 H         4.221545        -2.819046         1.122405
 H        -0.101620         1.177264         0.011613
 H        -0.220694         0.543407        -1.504751
 H        -0.395726        -0.601204        -0.106777
 H         2.366829         2.119779        -0.846179
 H         1.637534         2.189671         0.665600
 H         4.446374        -0.115341         1.619602
 H         1.541312        -1.125693         1.934780
