19
Iteration:  3074charge 0 multiplicity 1
 C         3.862680        -2.505003        -0.031940
 C         3.124679        -1.210588         0.263501
 O         2.449440        -0.718422        -0.879314
 C         1.598256         0.155981        -0.115493
 C         0.196693         0.370431        -0.568533
 C         2.297478         1.434697        -0.035305
 O         3.514649         1.180386         0.585531
 C         3.409799        -0.038955         1.181008
 C         2.058244        -0.591966         1.231182
 H         3.160059        -3.230469        -0.316876
 H         4.401729        -2.096202        -0.943839
 H         4.554080        -2.918238         0.681296
 H         0.139219         1.438245        -0.946974
 H        -0.249295        -0.178071        -1.517887
 H        -0.516021         0.276101         0.263918
 H         2.536106         1.537071        -1.131302
 H         1.707693         2.180854         0.491070
 H         3.915920        -0.389306         2.074964
 H         1.402296        -0.799468         2.079111
