19
Iteration:  2705charge 0 multiplicity 1
 C         3.934175        -2.339474        -0.148326
 C         2.976479        -1.238966         0.193624
 O         2.527045        -0.686014        -1.031137
 C         1.583623         0.244147        -0.081020
 C         0.077618         0.227141        -0.409677
 C         2.332714         1.563708         0.068114
 O         3.630431         1.116641         0.678449
 C         3.356070        -0.148536         1.188390
 C         1.974218        -0.672041         1.159828
 H         3.614109        -3.155734        -0.760591
 H         4.588792        -1.766483        -0.850198
 H         4.672416        -2.616573         0.580663
 H        -0.420150         1.208758        -0.385295
 H        -0.098900        -0.231644        -1.448596
 H        -0.438504        -0.406008         0.243507
 H         2.647674         2.016225        -0.928107
 H         1.730386         2.285032         0.699894
 H         4.075188        -0.240769         1.958341
 H         1.340015        -1.029646         2.004638
