19
Iteration:  2232
 C         3.705887        -2.522511        -0.219350
 C         3.206978        -1.184620        -0.033284
 O         2.595628        -0.359924        -1.049271
 C         1.570688         0.222613        -0.107477
 C         0.155797         0.041111        -0.444678
 C         2.189882         1.537192         0.429208
 O         3.552084         1.210495         0.703189
 C         3.451490        -0.126731         1.160196
 C         2.029717        -0.678107         1.066524
 H         3.955093        -2.736416        -1.253472
 H         4.660369        -2.692477         0.366387
 H         3.027657        -3.368407         0.074260
 H        -0.055115         0.289078        -1.497643
 H         0.179983        -1.052353        -0.440402
 H        -0.535881         0.462700         0.300855
 H         2.241296         2.348556        -0.357809
 H         1.668423         1.776322         1.402661
 H         4.251240        -0.331027         1.954605
 H         1.572758        -1.163517         1.887415
