19
Iteration:  2141
 C         4.001196        -2.326581        -0.278903
 C         3.089163        -1.214805         0.099103
 O         2.359868        -0.636631        -1.019927
 C         1.550131         0.151556        -0.057986
 C         0.125601         0.267781        -0.370419
 C         2.256077         1.517681         0.144691
 O         3.548618         1.158031         0.763728
 C         3.516163        -0.173934         1.126525
 C         2.039062        -0.700237         1.142955
 H         4.930981        -2.083548         0.239054
 H         3.693372        -3.242353         0.068327
 H         4.126085        -2.496504        -1.319080
 H        -0.344056         1.143461         0.112748
 H         0.000806         0.546837        -1.445226
 H        -0.514576        -0.601845        -0.214784
 H         2.279402         1.918633        -0.906162
 H         1.788484         2.201465         0.857629
 H         4.027070        -0.503119         1.990394
 H         1.594512        -0.896131         2.165499
