19
Iteration:  3940charge 0 multiplicity 1
 C         3.651147        -2.602597         0.337938
 C         3.071940        -1.211820         0.130716
 O         2.523170        -0.598618        -1.052152
 C         1.625482         0.165894        -0.125644
 C         0.028673         0.206359        -0.381768
 C         2.338477         1.561581        -0.024648
 O         3.603289         1.217587         0.483384
 C         3.533875        -0.091643         1.090757
 C         2.114014        -0.568852         1.050673
 H         3.146078        -3.353930        -0.361576
 H         4.753701        -2.606623        -0.008082
 H         3.601863        -2.875136         1.411802
 H        -0.346752        -0.559513        -1.112573
 H        -0.530819         0.157396         0.550318
 H        -0.313986         1.136668        -0.806059
 H         2.602439         1.920107        -1.057087
 H         1.875922         2.271498         0.657546
 H         4.233260        -0.215963         1.959844
 H         1.647903        -0.691159         2.033943
