19
Iteration:  4255charge 0 multiplicity 1
 C         3.488811        -2.640456        -0.024611
 C         3.097667        -1.173745         0.293485
 O         2.597385        -0.595927        -0.908495
 C         1.528740         0.193107        -0.041352
 C         0.104775        -0.014029        -0.517743
 C         2.368498         1.631707        -0.047924
 O         3.648712         1.303023         0.517012
 C         3.520757        -0.044579         1.125158
 C         2.108958        -0.538001         1.263636
 H         2.710887        -3.337147         0.176412
 H         3.906638        -2.762962        -1.118561
 H         4.347831        -2.822541         0.650023
 H        -0.719457         0.076386         0.247061
 H        -0.168059         0.762298        -1.207806
 H         0.344406        -0.890236        -1.112490
 H         2.485122         2.067588        -1.054459
 H         1.940834         2.461496         0.515704
 H         4.267347        -0.092476         1.871048
 H         1.387612        -1.142683         1.813224
