19
Iteration:  3547charge 0 multiplicity 1
 C         3.598190        -2.623373         0.115709
 C         3.171014        -1.241924         0.133687
 O         2.557086        -0.624572        -0.986428
 C         1.598394         0.196155        -0.047943
 C         0.243437         0.204325        -0.487866
 C         2.158529         1.592045         0.139213
 O         3.484371         1.242032         0.555400
 C         3.574913        -0.076562         1.040879
 C         2.193514        -0.614523         1.135433
 H         2.831395        -2.913302        -0.743258
 H         4.453690        -2.754277        -0.545428
 H         3.372571        -2.927364         1.105015
 H         0.277458         0.180547        -1.562969
 H        -0.468655        -0.639574        -0.183864
 H        -0.148739         1.196839        -0.153972
 H         2.263897         2.071134        -0.917373
 H         1.618500         2.274279         0.848900
 H         4.190505        -0.081534         1.895292
 H         1.550291        -0.927987         1.922165
