19
Iteration:  3362charge 0 multiplicity 1
 C         3.617486        -2.556074        -0.032458
 C         3.069787        -1.237344         0.243143
 O         2.647388        -0.529160        -0.871196
 C         1.634999         0.219746        -0.013598
 C         0.207398         0.095248        -0.531177
 C         2.230528         1.576948         0.088754
 O         3.533612         1.180540         0.468946
 C         3.447315        -0.078318         1.129623
 C         2.082874        -0.570498         1.162609
 H         2.929396        -3.047771        -0.828848
 H         4.568887        -2.599612        -0.578049
 H         3.744404        -3.138668         0.891969
 H         0.227304         0.078962        -1.625794
 H        -0.399674        -0.798360        -0.258652
 H        -0.356269         0.997084        -0.128327
 H         2.471409         2.086868        -0.903406
 H         1.593177         2.219081         0.737943
 H         4.386639        -0.116984         1.703519
 H         1.511088        -0.901909         1.985438
