19
Iteration:   864charge 0 multiplicity 1
 C         3.852120        -2.427931         0.000042
 C         3.067778        -1.208612         0.209723
 O         2.080105        -0.873578        -0.724240
 C         1.499675         0.149463         0.130100
 C        -0.091061         0.054141         0.228264
 C         2.243240         1.470975        -0.261148
 O         3.650787         1.306164        -0.015999
 C         3.752703         0.057667         0.672683
 C         2.477628        -0.383364         1.326885
 H         4.060904        -2.898565         0.912744
 H         3.276159        -3.149828        -0.700835
 H         4.784873        -2.128994        -0.441444
 H        -0.670921         0.583976        -0.567993
 H        -0.401902        -0.974293         0.045946
 H        -0.269062         0.349749         1.280082
 H         2.098973         1.732584        -1.349680
 H         1.927048         2.354694         0.408744
 H         4.700555        -0.134746         1.313242
 H         2.217053        -0.612448         2.365952
