19
Iteration:   498charge 0 multiplicity 1
 C         3.754089        -2.539157         0.124539
 C         3.110252        -1.204813         0.122147
 O         2.174141        -0.710245        -0.891927
 C         1.503274         0.185423         0.108748
 C         0.055168        -0.062832         0.262517
 C         2.133132         1.552508        -0.143471
 O         3.624436         1.299690        -0.011846
 C         3.730199         0.062906         0.715700
 C         2.445304        -0.436998         1.243147
 H         4.202657        -2.777293         1.110838
 H         2.943216        -3.300716         0.149367
 H         4.581503        -2.722613        -0.667391
 H        -0.510318         0.526973        -0.475933
 H        -0.122592        -1.156223         0.221212
 H        -0.169754         0.400459         1.242428
 H         2.110265         1.809136        -1.218373
 H         1.693514         2.397179         0.437225
 H         4.610527        -0.079317         1.227815
 H         2.152331        -0.614745         2.324727
