19
Iteration:  3296charge 0 multiplicity 1
 C         3.771585        -2.568939         0.197744
 C         3.029757        -1.258125         0.079596
 O         2.461373        -0.535525        -1.069132
 C         1.591049         0.163067        -0.135099
 C         0.137100         0.197743        -0.428675
 C         2.363393         1.513058        -0.048741
 O         3.510807         1.255113         0.758068
 C         3.476624        -0.081811         1.104493
 C         2.144644        -0.613586         1.092432
 H         3.109642        -3.487582         0.217300
 H         4.362154        -2.798728        -0.721285
 H         4.494225        -2.479304         1.050219
 H        -0.029566         0.987553        -1.239814
 H        -0.249677        -0.723878        -0.874729
 H        -0.548753         0.501435         0.428872
 H         2.566496         1.853346        -1.112845
 H         1.938386         2.378292         0.422307
 H         4.265588        -0.479977         1.698395
 H         1.416147        -0.883838         1.886160
