19
Iteration:  2811
 C         3.614505        -2.498327        -0.009953
 C         3.100672        -1.187906         0.159473
 O         2.537946        -0.409408        -0.960429
 C         1.532537         0.226452        -0.080271
 C         0.135366        -0.093116        -0.493668
 C         2.312841         1.632501         0.135922
 O         3.662647         1.174836         0.567768
 C         3.489661        -0.156110         1.134582
 C         2.068024        -0.547798         1.131573
 H         2.861613        -3.068118        -0.559723
 H         4.531668        -2.403601        -0.704818
 H         3.739440        -3.147152         0.883718
 H        -0.135490        -1.058385        -0.039196
 H        -0.616995         0.664966        -0.216225
 H         0.153802        -0.329313        -1.562701
 H         2.406515         2.225579        -0.826933
 H         1.826026         2.254229         0.910672
 H         4.340698        -0.198439         1.804998
 H         1.696384        -1.089472         1.978839
