19
Iteration:   576charge 0 multiplicity 1
 C         3.631265        -2.593217         0.026528
 C         3.204993        -1.179406         0.157294
 O         2.107451        -0.685896        -0.810193
 C         1.528401         0.106963         0.208973
 C         0.028506        -0.200644         0.145197
 C         2.204486         1.579472        -0.132938
 O         3.653476         1.353747        -0.018907
 C         3.761071         0.121986         0.714600
 C         2.461210        -0.356113         1.300333
 H         4.579334        -2.723640         0.605161
 H         2.884687        -3.312664         0.235632
 H         3.821811        -2.829100        -1.067856
 H        -0.341587        -0.304841        -0.879211
 H        -0.156016        -1.053260         0.822154
 H        -0.511771         0.610315         0.682403
 H         1.921568         1.762094        -1.192599
 H         1.918493         2.431705         0.426813
 H         4.666166         0.022855         1.359178
 H         2.251546        -0.435780         2.333874
