19
Iteration:  2767charge 0 multiplicity 1
 C         3.622250        -2.623997        -0.047216
 C         3.195970        -1.160599         0.095840
 O         2.496837        -0.592011        -1.009743
 C         1.675298         0.149381        -0.087382
 C         0.196586         0.189794        -0.494256
 C         2.133286         1.533392         0.122984
 O         3.483427         1.308073         0.742469
 C         3.592773        -0.019949         1.058976
 C         2.165465        -0.671860         1.142545
 H         2.757947        -3.290364        -0.054689
 H         4.288012        -2.687512        -0.970814
 H         4.166434        -2.904185         0.907886
 H        -0.405141         0.125003         0.423534
 H        -0.016962         1.125848        -0.989621
 H        -0.081074        -0.588960        -1.226998
 H         2.287911         2.109606        -0.802477
 H         1.467828         1.997327         0.871473
 H         4.265584        -0.322253         1.845344
 H         1.661714        -1.174487         1.893036
