19
Iteration:  4446
 C         3.548607        -2.642730         0.146458
 C         3.119565        -1.202509         0.154054
 O         2.501267        -0.634594        -1.044598
 C         1.633336         0.147803        -0.143919
 C         0.233924         0.131604        -0.498401
 C         2.177837         1.588737         0.144319
 O         3.617916         1.352734         0.601861
 C         3.571934        -0.023301         1.085568
 C         2.143757        -0.611699         1.097813
 H         2.557005        -3.202052         0.284216
 H         4.061789        -2.816229        -0.754210
 H         4.168722        -3.008471         0.932950
 H        -0.272441         1.037872        -0.533081
 H         0.186214        -0.214108        -1.566355
 H        -0.256495        -0.594129         0.137652
 H         2.304121         2.274197        -0.710112
 H         1.647774         2.186532         0.925026
 H         4.266079        -0.175842         1.906259
 H         1.343600        -1.032355         1.743063
