19
Iteration:  4168
 C         3.846864        -2.463561         0.084213
 C         3.040459        -1.225044         0.211536
 O         2.414600        -0.632175        -0.992900
 C         1.560944         0.157071        -0.063388
 C         0.106170         0.303774        -0.492611
 C         2.348427         1.457036         0.000501
 O         3.619857         1.160419         0.504386
 C         3.500359        -0.097581         1.137326
 C         2.027575        -0.580501         1.226691
 H         3.378350        -2.995238        -0.715999
 H         4.910842        -2.064339        -0.132186
 H         3.920405        -3.223753         0.873809
 H        -0.247427         1.417264        -0.375066
 H        -0.103641        -0.023958        -1.513567
 H        -0.565797        -0.237034         0.211390
 H         2.448406         1.775590        -1.055256
 H         2.006716         2.354732         0.562882
 H         4.222008        -0.540295         1.783563
 H         1.359475        -0.939054         2.041852
