19
Iteration:   384
 C         3.766996        -2.514773         0.095764
 C         3.199899        -1.143973         0.046593
 O         2.048244        -0.777938        -0.908844
 C         1.513607         0.129435         0.102360
 C         0.020673        -0.068477         0.224372
 C         2.164343         1.536817        -0.117643
 O         3.700260         1.316081         0.081504
 C         3.767453         0.084629         0.763803
 C         2.393864        -0.413111         1.231593
 H         4.638390        -2.497072         0.808050
 H         3.026476        -3.322150         0.436806
 H         4.106670        -2.708502        -0.880151
 H        -0.347183        -0.022819        -0.800373
 H        -0.258811        -1.034546         0.672791
 H        -0.608759         0.720372         0.644426
 H         2.125897         2.018867        -1.091542
 H         1.748966         2.208096         0.627194
 H         4.613531        -0.160733         1.496915
 H         2.103996        -0.541969         2.255087
