19
Iteration:  1573charge 0 multiplicity 1
 C         4.005336        -2.433018        -0.119926
 C         3.170157        -1.213709         0.106577
 O         2.109418        -0.862712        -0.859568
 C         1.495734         0.069852         0.109814
 C        -0.029063         0.256826         0.041704
 C         2.158625         1.427953        -0.095418
 O         3.630153         1.339989         0.202304
 C         3.645916         0.010395         0.894065
 C         2.363872        -0.500440         1.269060
 H         3.380571        -3.193595         0.416750
 H         4.272766        -2.818027        -1.154073
 H         4.849308        -2.352661         0.548359
 H        -0.429420         1.246455        -0.354370
 H        -0.564284        -0.538713        -0.531190
 H        -0.377294         0.150973         1.124994
 H         2.016859         1.622588        -1.181215
 H         1.779862         2.256488         0.510031
 H         4.587246        -0.084099         1.533331
 H         1.969079        -0.750850         2.236672
