19
Iteration:  3359
 C         3.610347        -2.591069        -0.052624
 C         3.079344        -1.232653         0.250004
 O         2.642453        -0.538117        -0.856538
 C         1.611276         0.216912        -0.029765
 C         0.197052         0.111504        -0.549038
 C         2.218408         1.568831         0.077346
 O         3.533095         1.200868         0.490818
 C         3.452718        -0.089861         1.120876
 C         2.120578        -0.543409         1.166837
 H         2.933532        -3.036999        -0.765720
 H         4.617051        -2.590482        -0.641775
 H         3.735106        -3.194110         0.911642
 H         0.214442         0.072331        -1.656899
 H        -0.244436        -0.790812        -0.246632
 H        -0.310516         0.952794        -0.085433
 H         2.418263         2.030425        -0.936866
 H         1.611176         2.228352         0.820751
 H         4.321207        -0.084479         1.751579
 H         1.475003        -0.876220         2.019098
