19
Iteration:  1969
 C         3.944999        -2.411531        -0.046482
 C         3.133809        -1.188138         0.129386
 O         2.273016        -0.688794        -0.981908
 C         1.560492         0.135792         0.016954
 C         0.083664         0.278456        -0.281367
 C         2.201569         1.523724         0.129717
 O         3.620616         1.232863         0.448586
 C         3.506293        -0.081937         0.974405
 C         2.179914        -0.713043         1.196544
 H         4.248094        -2.392866        -1.135188
 H         4.839446        -2.208483         0.541165
 H         3.428645        -3.384869         0.118794
 H        -0.179378        -0.386739        -1.094985
 H        -0.590747         0.004075         0.547468
 H        -0.257584         1.282214        -0.492556
 H         2.143993         2.065898        -0.822200
 H         1.700046         2.003629         0.958850
 H         4.357244        -0.473538         1.473624
 H         1.730767        -1.142784         2.120302
