19
Iteration:  3337
 C         3.581955        -2.652463        -0.053591
 C         3.141236        -1.216545         0.254084
 O         2.428776        -0.657488        -0.988950
 C         1.649545         0.159904        -0.066578
 C         0.126103         0.072248        -0.599078
 C         2.277520         1.570618         0.061299
 O         3.630321         1.366135         0.658889
 C         3.556949         0.027960         1.188303
 C         2.134475        -0.570546         1.163508
 H         2.802553        -3.139715        -0.602128
 H         4.447689        -2.754866        -0.822649
 H         3.925207        -3.221044         0.879688
 H         0.202484         0.445144        -1.655358
 H        -0.360936        -0.832209        -0.718320
 H        -0.523326         0.742514        -0.045622
 H         2.607697         2.133904        -0.848624
 H         1.465205         2.103723         0.677940
 H         4.250386        -0.058705         2.004794
 H         1.680564        -0.851621         2.159252
