19
Iteration:  3323charge 0 multiplicity 1
 C         3.583652        -2.544903         0.031127
 C         3.128802        -1.160559         0.111357
 O         2.399340        -0.759042        -0.983300
 C         1.580778         0.142192        -0.112952
 C         0.196532         0.131446        -0.577724
 C         2.354775         1.580592         0.049761
 O         3.574056         1.352942         0.745496
 C         3.538496         0.024575         1.135591
 C         2.184913        -0.612237         1.171428
 H         2.717921        -3.147356        -0.243237
 H         4.334072        -2.636399        -0.761370
 H         3.995490        -2.923787         0.952217
 H         0.084408         0.647784        -1.532077
 H        -0.035244        -0.969608        -0.712466
 H        -0.544005         0.532180         0.086981
 H         2.384437         1.980808        -0.924437
 H         1.920579         2.399976         0.691841
 H         4.294380        -0.390767         1.816085
 H         1.512258        -1.129175         1.851633
