19
Iteration:  1862charge 0 multiplicity 1
 C         3.632118        -2.609118        -0.085624
 C         3.153432        -1.085955         0.059738
 O         2.429811        -0.545629        -1.022289
 C         1.544315         0.258396         0.026930
 C         0.087193        -0.087401        -0.177587
 C         2.136854         1.573552         0.147265
 O         3.596371         1.265610         0.399283
 C         3.658048         0.007239         1.008034
 C         2.310086        -0.598603         1.184724
 H         4.092340        -3.021147         0.805940
 H         2.784542        -3.257330        -0.377755
 H         4.334415        -2.868919        -0.938035
 H        -0.222832        -1.013113         0.384374
 H        -0.519279         0.778929         0.282844
 H        -0.102873        -0.165316        -1.267225
 H         2.039198         2.297480        -0.668042
 H         1.582902         2.001221         1.063428
 H         4.492424        -0.224294         1.671088
 H         1.892564        -0.937913         2.154085
