19
Iteration:  3124charge 0 multiplicity 1
 C         3.742864        -2.492030         0.083208
 C         3.075408        -1.148043         0.124570
 O         2.406924        -0.656818        -1.034566
 C         1.591957         0.158021        -0.082975
 C         0.161109         0.186132        -0.571062
 C         2.358400         1.596381         0.040878
 O         3.548334         1.219843         0.693222
 C         3.556738        -0.098850         1.117898
 C         2.066322        -0.623655         1.171161
 H         2.955776        -3.331635         0.060186
 H         4.524895        -2.627261        -0.640214
 H         4.133113        -2.515407         1.103376
 H        -0.051434         0.950179        -1.258130
 H         0.077322        -0.660050        -1.219712
 H        -0.588221         0.080580         0.173943
 H         2.439225         1.915636        -0.959797
 H         1.807613         2.184136         0.788354
 H         4.294341        -0.479856         1.771975
 H         1.540123        -0.863384         2.153934
