19
Iteration:  4176charge 0 multiplicity 1
 C         3.885635        -2.530270         0.105105
 C         3.101052        -1.198181         0.139402
 O         2.393542        -0.631130        -1.007352
 C         1.490617         0.211194        -0.071917
 C         0.107731         0.314035        -0.465905
 C         2.337773         1.440727        -0.006554
 O         3.632804         1.146224         0.515961
 C         3.438212        -0.082261         1.162384
 C         2.067887        -0.565201         1.198956
 H         3.474529        -3.213090        -0.633769
 H         4.978980        -2.488452        -0.245454
 H         3.819614        -2.950017         1.088384
 H        -0.042843         1.327512        -0.216012
 H        -0.087791         0.086448        -1.562145
 H        -0.606865        -0.119864         0.218905
 H         2.493604         1.788865        -1.006083
 H         1.829813         2.081846         0.672645
 H         4.206293        -0.212679         1.975029
 H         1.415298        -1.030825         1.945561
