19
Iteration:  1869
 C         3.646121        -2.598090        -0.089057
 C         3.104833        -1.165078         0.038747
 O         2.483902        -0.525365        -0.979213
 C         1.516031         0.222718         0.025151
 C         0.058771        -0.094019        -0.130510
 C         2.211572         1.590545         0.100736
 O         3.594593         1.283492         0.440370
 C         3.660049        -0.015872         0.982293
 C         2.248221        -0.534319         1.133286
 H         4.314505        -2.853956         0.793392
 H         2.791827        -3.280358        -0.167327
 H         4.121595        -2.690759        -1.075880
 H        -0.057749        -1.107640         0.200915
 H        -0.668494         0.540033         0.331897
 H        -0.290284        -0.136411        -1.164864
 H         2.021916         2.292868        -0.745015
 H         1.821892         2.075761         1.039959
 H         4.440283        -0.169934         1.787904
 H         1.958439        -1.063172         1.999139
