19
Iteration:  2440
 C         3.705692        -2.552985        -0.234541
 C         3.097773        -1.112885         0.055300
 O         2.486049        -0.382105        -1.012015
 C         1.598069         0.207544        -0.026554
 C         0.187028        -0.024598        -0.524479
 C         2.198018         1.610120         0.242162
 O         3.588703         1.239196         0.797845
 C         3.513501        -0.151763         1.110222
 C         2.133861        -0.672095         1.148383
 H         2.853203        -3.023292        -0.590241
 H         4.628599        -2.666396        -0.832899
 H         3.825569        -3.031233         0.733211
 H        -0.673957         0.545319        -0.135935
 H         0.142506        -0.004877        -1.636729
 H        -0.073134        -1.152146        -0.303393
 H         2.547418         2.087456        -0.719133
 H         1.609540         2.190234         0.896004
 H         4.181482        -0.520908         1.849949
 H         1.611035        -1.166647         2.043136
