19
Iteration:  4754charge 0 multiplicity 1
 C         3.926533        -2.440190         0.054805
 C         3.041604        -1.188837         0.021725
 O         2.468985        -0.498210        -1.079979
 C         1.573703         0.206839        -0.029434
 C         0.127679         0.338962        -0.394465
 C         2.321691         1.442419         0.150182
 O         3.505843         1.182969         0.630108
 C         3.461145        -0.183697         1.084769
 C         2.041171        -0.791103         1.098703
 H         3.457361        -3.311623        -0.475000
 H         4.898101        -2.097276        -0.339151
 H         4.110485        -2.818193         1.078958
 H         0.016328         1.318978        -0.966506
 H        -0.111786        -0.583106        -0.998720
 H        -0.463037         0.292242         0.578180
 H         2.287687         2.033856        -0.781448
 H         1.697973         2.003949         0.894003
 H         4.300715        -0.418293         1.773461
 H         1.334572        -1.393381         1.710166
