19
Iteration:  1522charge 0 multiplicity 1
 C         3.735662        -2.572175         0.023848
 C         3.157368        -1.113740         0.160465
 O         2.219708        -0.684491        -0.880370
 C         1.451779         0.191850         0.118161
 C         0.082606        -0.116186         0.169895
 C         2.211089         1.518459        -0.103488
 O         3.606930         1.277600         0.052030
 C         3.687609         0.061248         0.789252
 C         2.353063        -0.404007         1.244581
 H         3.280584        -3.124320        -0.839228
 H         4.788417        -2.477259        -0.100877
 H         3.574690        -3.203024         0.916659
 H        -0.561721         0.619217         0.610246
 H        -0.176420        -0.056752        -0.891210
 H        -0.165973        -1.158879         0.411489
 H         2.125441         1.907993        -1.106208
 H         2.100072         2.307960         0.678472
 H         4.548670         0.064166         1.479846
 H         2.154681        -0.554649         2.360118
