19
Iteration:  1267charge 0 multiplicity 1
 C         3.720434        -2.550027         0.210422
 C         3.154593        -1.206677         0.160195
 O         2.131967        -0.845121        -0.801613
 C         1.524993         0.110682         0.097677
 C         0.008976         0.011454         0.168082
 C         2.130448         1.440074        -0.181200
 O         3.571108         1.389947        -0.087688
 C         3.810404         0.190650         0.655216
 C         2.568283        -0.366249         1.331180
 H         3.693288        -3.023973         1.201805
 H         2.917416        -3.274326        -0.288024
 H         4.712390        -2.779238        -0.195669
 H        -0.460659         0.963068        -0.225349
 H        -0.347028        -0.868264        -0.468378
 H        -0.275966        -0.204501         1.218902
 H         1.960452         1.791208        -1.232303
 H         1.762346         2.100601         0.571561
 H         4.778085         0.296898         1.114040
 H         2.042062        -0.678683         2.327337
