19
Iteration:  2893
 C         3.901319        -2.460749         0.128030
 C         3.100528        -1.244412         0.196470
 O         2.420519        -0.634460        -1.071102
 C         1.579379         0.128157        -0.101764
 C         0.150270         0.400170        -0.364165
 C         2.316794         1.527859        -0.062617
 O         3.533999         1.189750         0.655344
 C         3.461063        -0.107818         1.089492
 C         2.021652        -0.759543         1.082680
 H         3.110753        -3.251674        -0.119890
 H         4.555302        -2.442425        -0.720232
 H         4.533360        -2.434118         1.047242
 H        -0.222573        -0.226714        -1.181392
 H        -0.376957        -0.042039         0.428777
 H        -0.189943         1.461623        -0.393555
 H         2.482825         1.828215        -1.074235
 H         1.870629         2.344744         0.501110
 H         4.207676        -0.122573         1.841635
 H         1.433100        -1.215708         1.819393
