19
Iteration:  2209
 C         3.645937        -2.521098        -0.205015
 C         3.200660        -1.175563         0.019515
 O         2.609245        -0.374485        -1.072149
 C         1.580511         0.159964        -0.071148
 C         0.139229         0.000772        -0.415361
 C         2.149775         1.615052         0.269097
 O         3.524218         1.240857         0.820369
 C         3.602945        -0.106598         1.122232
 C         2.065058        -0.746440         1.044908
 H         4.244414        -2.547905        -1.117371
 H         4.277306        -2.917594         0.590943
 H         2.825757        -3.239552        -0.346977
 H        -0.232834         0.923528        -0.919882
 H        -0.156381        -0.886739        -1.004486
 H        -0.295755        -0.017137         0.588438
 H         2.444034         2.335216        -0.551584
 H         1.487920         2.013711         1.071498
 H         4.315160        -0.278875         2.013584
 H         1.404450        -1.353959         1.651459
