19
Iteration:   482
 C         3.870173        -2.507787         0.027856
 C         3.030552        -1.197664         0.115188
 O         2.072712        -0.821082        -0.855231
 C         1.587741         0.184195         0.130407
 C         0.117272         0.040229         0.312204
 C         2.280640         1.496470        -0.298824
 O         3.598790         1.276196         0.064641
 C         3.673835         0.048019         0.737828
 C         2.313493        -0.357469         1.324641
 H         4.393750        -2.550480         0.984781
 H         3.451425        -3.392105        -0.416189
 H         4.577946        -2.242531        -0.690538
 H        -0.450571         0.538179        -0.479347
 H        -0.077095        -1.017067         0.164241
 H        -0.425674         0.191325         1.243485
 H         1.851700         1.653387        -1.297008
 H         1.904985         2.249744         0.396283
 H         4.664795        -0.058842         1.365976
 H         1.921680        -0.531452         2.284915
