19
Iteration:   395charge 0 multiplicity 1
 C         3.849718        -2.463403        -0.001197
 C         3.099668        -1.170501         0.119353
 O         2.069597        -0.917805        -0.874942
 C         1.511042         0.151085         0.171207
 C        -0.069974         0.068835         0.146618
 C         2.183417         1.490213        -0.123321
 O         3.672332         1.358646         0.122506
 C         3.755174         0.061987         0.757858
 C         2.456582        -0.427863         1.242833
 H         4.719938        -2.483951         0.694792
 H         3.137471        -3.347744         0.178451
 H         4.275325        -2.643816        -0.946571
 H        -0.354758        -0.096016        -0.885316
 H        -0.359798        -0.847024         0.684206
 H        -0.457697         0.934001         0.688271
 H         2.004257         1.674851        -1.183606
 H         1.972677         2.329323         0.501227
 H         4.698575         0.060234         1.409996
 H         2.108596        -0.565099         2.237870
