19
Iteration:   326
 C         3.398147        -2.615710         0.085689
 C         3.275346        -1.084538         0.154959
 O         2.207622        -0.749775        -0.811948
 C         1.600390         0.112365         0.102076
 C         0.045318        -0.196481         0.138791
 C         2.185994         1.527046        -0.089604
 O         3.524398         1.407616        -0.023681
 C         3.881239         0.237289         0.724336
 C         2.548158        -0.434710         1.265298
 H         3.901770        -3.014139         1.017548
 H         2.396344        -2.996758         0.083193
 H         3.984238        -3.100923        -0.743379
 H        -0.674408         0.387504        -0.492808
 H        -0.059866        -1.214162        -0.310188
 H        -0.047772        -0.314722         1.255058
 H         1.992617         1.890680        -1.103655
 H         1.660257         2.099090         0.671420
 H         4.802660         0.391724         1.184896
 H         2.170956        -0.590815         2.325149
