19
Iteration:  4374charge 0 multiplicity 1
 C         3.816679        -2.506094         0.044801
 C         3.154742        -1.218949         0.286673
 O         2.408133        -0.749474        -1.001154
 C         1.585965         0.171410        -0.159857
 C         0.062846         0.248345        -0.468239
 C         2.321219         1.552609        -0.083091
 O         3.648193         1.120886         0.573305
 C         3.479596        -0.099284         1.193383
 C         2.011011        -0.456861         1.170413
 H         3.220917        -3.228796        -0.500725
 H         4.884433        -2.222127        -0.373426
 H         4.085320        -2.939564         1.039087
 H        -0.576424         0.362452         0.479607
 H        -0.221044         1.308629        -0.749364
 H        -0.281885        -0.496660        -1.196053
 H         2.502086         2.042202        -1.079767
 H         1.705257         2.362405         0.468466
 H         4.232437        -0.257616         2.012172
 H         1.416095        -0.585587         2.050610
