19
Iteration:  4537charge 0 multiplicity 1
 C         3.868902        -2.496613        -0.199199
 C         3.103107        -1.261115         0.185720
 O         2.370579        -0.744037        -0.930057
 C         1.560399         0.187600        -0.043199
 C         0.109184         0.211917        -0.546424
 C         2.429766         1.543646        -0.022823
 O         3.640356         1.161965         0.688490
 C         3.405132        -0.049993         1.220159
 C         1.968598        -0.447727         1.232915
 H         3.503812        -3.146351        -1.074990
 H         4.964237        -2.187758        -0.501329
 H         4.162412        -3.005573         0.779655
 H         0.110411        -0.281875        -1.579469
 H        -0.649263        -0.440496        -0.088723
 H        -0.305211         1.216941        -0.238482
 H         2.640878         2.048051        -1.011513
 H         1.924233         2.365852         0.578591
 H         3.893407        -0.248563         2.167790
 H         1.287517        -0.671978         2.032189
