19
Iteration:  2947charge 0 multiplicity 1
 C         3.621496        -2.526225        -0.068919
 C         3.081402        -1.257582         0.235596
 O         2.494518        -0.647782        -0.866954
 C         1.606177         0.214557        -0.030171
 C         0.202984         0.120043        -0.563579
 C         2.299426         1.564191         0.051936
 O         3.587498         1.280057         0.527179
 C         3.522141        -0.072663         1.159844
 C         2.113094        -0.582072         1.189576
 H         2.628381        -3.129476        -0.370832
 H         4.218319        -2.318423        -0.973404
 H         4.282735        -2.952815         0.770587
 H         0.217055        -0.416197        -1.516190
 H        -0.323913        -0.449127         0.137073
 H        -0.379841         1.004029        -0.856405
 H         2.225096         2.186197        -0.881265
 H         1.781689         2.242706         0.746661
 H         4.275337        -0.185959         1.916898
 H         1.459853        -1.024614         1.896232
