19
Iteration:  2134charge 0 multiplicity 1
 C         4.020945        -2.318122        -0.277279
 C         3.076517        -1.229385         0.147900
 O         2.358375        -0.592578        -0.992818
 C         1.572710         0.146319        -0.053142
 C         0.098215         0.265971        -0.360188
 C         2.261160         1.498782         0.159215
 O         3.557104         1.121907         0.677310
 C         3.432754        -0.149458         1.151110
 C         2.066020        -0.662804         1.133041
 H         4.963602        -2.196291         0.337099
 H         3.613109        -3.339076         0.111974
 H         4.428046        -2.395423        -1.356282
 H        -0.309411         1.034695         0.335265
 H         0.080031         0.705768        -1.368862
 H        -0.515597        -0.623925        -0.383765
 H         2.470837         1.939132        -0.853073
 H         1.648910         2.170340         0.853644
 H         4.227376        -0.660943         1.792247
 H         1.448936        -1.128859         1.893256
