19
Iteration:  2982charge 0 multiplicity 1
 C         3.520717        -2.653164        -0.009396
 C         3.244330        -1.201391         0.164086
 O         2.564856        -0.542400        -0.899649
 C         1.651953         0.128084        -0.016917
 C         0.111287         0.151496        -0.603836
 C         2.217710         1.533719         0.058597
 O         3.539864         1.302882         0.569663
 C         3.571529        -0.015036         1.149816
 C         2.175854        -0.551948         1.156373
 H         2.517020        -3.066636        -0.514257
 H         4.309770        -2.998268        -0.686819
 H         3.508790        -3.273917         0.943973
 H         0.156641        -0.236555        -1.624043
 H        -0.354729        -0.690364        -0.144533
 H        -0.486544         1.051508        -0.308870
 H         2.215620         1.964873        -0.914474
 H         1.658165         2.001045         0.869409
 H         4.341415        -0.093975         1.983511
 H         1.602161        -0.920355         2.010468
