19
Iteration:  3462
 C         3.730929        -2.495813        -0.037254
 C         3.157719        -1.176111         0.240548
 O         2.566462        -0.722069        -0.923783
 C         1.491230         0.199071        -0.168190
 C        -0.023992         0.297528        -0.465752
 C         2.388648         1.427365        -0.081636
 O         3.589771         1.273131         0.701537
 C         3.467795        -0.070427         1.205261
 C         2.083682        -0.613208         1.128088
 H         2.908624        -3.356487        -0.079017
 H         4.213238        -2.479552        -1.003377
 H         4.537948        -2.914686         0.546914
 H        -0.133816         1.106000        -1.125452
 H        -0.266971        -0.636409        -1.080674
 H        -0.626455         0.341342         0.442731
 H         2.670543         1.740304        -1.117570
 H         1.967103         2.436380         0.217980
 H         4.130972        -0.207327         2.027123
 H         1.601318        -1.072907         2.000875
