19
Iteration:  3896charge 0 multiplicity 1
 C         3.522564        -2.680400         0.101541
 C         3.072741        -1.247242         0.309641
 O         2.501575        -0.704931        -0.972053
 C         1.558966         0.186321        -0.086297
 C         0.111930         0.094508        -0.556130
 C         2.290124         1.587890         0.002897
 O         3.643544         1.301072         0.517159
 C         3.582533         0.029860         1.035322
 C         2.222421        -0.465754         1.237372
 H         2.707645        -3.321522        -0.322587
 H         4.454589        -2.767204        -0.602015
 H         3.841968        -2.927760         1.109424
 H        -0.051428        -0.745406        -1.229721
 H        -0.638525         0.202572         0.265140
 H        -0.073578         0.991546        -1.163783
 H         2.468333         2.003660        -1.034159
 H         1.776995         2.247342         0.747516
 H         4.172983        -0.099143         1.916186
 H         1.742183        -0.589611         2.175804
