19
Iteration:  2370
 C         3.753556        -2.526955        -0.191878
 C         3.137494        -1.239386         0.110154
 O         2.518664        -0.449783        -1.056721
 C         1.558427         0.240671        -0.076991
 C         0.134176         0.152026        -0.546152
 C         2.149475         1.588520         0.284644
 O         3.574713         1.227840         0.780316
 C         3.518266        -0.166476         1.138691
 C         2.132131        -0.737605         1.109528
 H         3.079647        -3.391827         0.013124
 H         4.129016        -2.407161        -1.190094
 H         4.674612        -2.631764         0.378028
 H        -0.240445         1.096992        -0.984281
 H        -0.057437        -0.695565        -1.241474
 H        -0.420123        -0.029532         0.339637
 H         2.107077         2.109044        -0.651882
 H         1.756506         2.043268         1.169973
 H         4.297058        -0.273553         1.993738
 H         1.631496        -1.396725         1.779872
