19
Iteration:  1836charge 0 multiplicity 1
 C         3.650819        -2.569381        -0.106700
 C         3.140536        -1.106319         0.078208
 O         2.353439        -0.650618        -0.904033
 C         1.525302         0.107655         0.128987
 C         0.113353         0.080820        -0.280777
 C         2.149831         1.485010         0.206301
 O         3.545680         1.378920         0.403273
 C         3.722165         0.048551         0.854600
 C         2.353616        -0.639204         1.171971
 H         3.488163        -3.279595         0.764736
 H         3.121003        -3.006309        -0.944619
 H         4.720799        -2.711665        -0.364240
 H        -0.514188        -0.531611         0.332171
 H        -0.257628         1.085344        -0.200658
 H         0.147692        -0.244430        -1.325174
 H         1.781456         2.106510        -0.652537
 H         1.686453         1.918126         1.185283
 H         4.476692        -0.058776         1.649339
 H         2.148147        -1.212588         2.047331
