19
Iteration:    91charge 0 multiplicity 1
 C         3.910723        -2.563560        -0.020064
 C         3.117204        -1.282190         0.205655
 O         2.171184        -0.871526        -0.787226
 C         1.503222         0.173235         0.174648
 C        -0.018814         0.184171         0.081701
 C         2.162955         1.503018        -0.201975
 O         3.558072         1.420313         0.140099
 C         3.749107         0.059484         0.724045
 C         2.422153        -0.490563         1.275963
 H         4.615524        -2.819772         0.837237
 H         3.197950        -3.412781        -0.256474
 H         4.452828        -2.412181        -0.894088
 H        -0.458224         1.098359        -0.288471
 H        -0.438660        -0.547585        -0.628562
 H        -0.525779        -0.113189         1.016310
 H         2.014320         1.548480        -1.275238
 H         1.606754         2.301585         0.314564
 H         4.631976         0.000365         1.400310
 H         2.123108        -0.831528         2.356498
