19
Iteration:  1799charge 0 multiplicity 1
 C         3.920913        -2.512292        -0.182342
 C         3.126855        -1.232911         0.096591
 O         2.240875        -0.688592        -0.896466
 C         1.505133         0.192851         0.119240
 C         0.047933         0.144614        -0.160004
 C         2.201660         1.493592         0.057892
 O         3.603814         1.287940         0.423058
 C         3.625775        -0.013732         0.908479
 C         2.225978        -0.596655         1.200390
 H         3.374836        -3.393976         0.081904
 H         4.240748        -2.428006        -1.267961
 H         4.834790        -2.372878         0.397980
 H        -0.560878        -0.465229         0.531519
 H        -0.334313         1.178375        -0.096152
 H        -0.223657        -0.146645        -1.166004
 H         2.361557         2.022145        -0.881549
 H         1.715485         2.149251         0.773885
 H         4.366147        -0.168122         1.678328
 H         1.904241        -1.077283         2.152619
