19
Iteration:  2578charge 0 multiplicity 1
 C         3.677624        -2.511780        -0.221853
 C         3.113895        -1.156165         0.098157
 O         2.640759        -0.386092        -0.967086
 C         1.587284         0.231560        -0.049852
 C         0.170642         0.005158        -0.469996
 C         2.192820         1.594036         0.184990
 O         3.539162         1.178662         0.709524
 C         3.489389        -0.151713         1.202638
 C         2.072456        -0.654631         1.051820
 H         2.942026        -3.426189        -0.200209
 H         4.187542        -2.377445        -1.212042
 H         4.471469        -2.879776         0.478010
 H         0.112287        -1.109892        -0.441805
 H        -0.492125         0.303784         0.382582
 H        -0.166089         0.405032        -1.428726
 H         2.360586         2.161228        -0.725784
 H         1.683434         2.168868         1.000990
 H         4.062991        -0.515698         2.004281
 H         1.367840        -1.081309         1.832647
