19
Iteration:  4735charge 0 multiplicity 1
 C         3.949158        -2.416126         0.054551
 C         3.101981        -1.186528         0.046728
 O         2.414505        -0.533107        -1.072119
 C         1.516758         0.171583        -0.089683
 C         0.050350         0.309047        -0.432928
 C         2.207580         1.580197         0.159446
 O         3.635447         1.071595         0.672321
 C         3.512774        -0.172623         1.085365
 C         2.074735        -0.750497         1.038277
 H         3.602165        -3.315801        -0.369170
 H         5.042264        -2.196767        -0.269545
 H         3.880518        -2.754779         1.161616
 H        -0.247393         1.410203        -0.513278
 H        -0.265286         0.011840        -1.319719
 H        -0.531847        -0.024303         0.505560
 H         2.544847         1.982405        -0.793966
 H         1.618461         2.169440         0.844898
 H         4.115817        -0.564592         1.983110
 H         1.531907        -1.163978         1.933490
