19
Iteration:  2301
 C         3.958298        -2.416551        -0.374668
 C         3.182538        -1.158583         0.102585
 O         2.456037        -0.643351        -1.032639
 C         1.567758         0.144752        -0.040785
 C         0.138184         0.379269        -0.429602
 C         2.250736         1.471601         0.126448
 O         3.456702         1.221649         0.904962
 C         3.446356        -0.154578         1.183183
 C         2.026450        -0.779018         1.124412
 H         3.462200        -2.816442        -1.312505
 H         4.964024        -1.959249        -0.549117
 H         4.216518        -3.259277         0.307860
 H        -0.025969         0.307620        -1.477117
 H        -0.427972        -0.370638         0.074736
 H        -0.165379         1.357615        -0.060254
 H         2.578464         1.752130        -0.853926
 H         1.597665         2.165069         0.710664
 H         3.940225        -0.491984         2.024571
 H         1.459078        -1.189191         2.006542
