19
Iteration:  4183
 C         3.895188        -2.572258         0.101234
 C         3.133119        -1.178505         0.134233
 O         2.379100        -0.649421        -1.000228
 C         1.569464         0.174683        -0.068192
 C         0.065093         0.360595        -0.423885
 C         2.315049         1.486629        -0.023727
 O         3.630158         1.150890         0.534225
 C         3.442811        -0.096836         1.159099
 C         2.070222        -0.595185         1.120110
 H         3.399508        -3.445870        -0.469714
 H         4.897559        -2.598330        -0.179584
 H         3.792945        -2.732255         1.218775
 H        -0.151396         1.456867        -0.359083
 H        -0.060687         0.190936        -1.498146
 H        -0.597669        -0.353441         0.107676
 H         2.450870         2.065643        -0.979602
 H         1.643495         2.118115         0.707207
 H         4.059672        -0.038257         2.069871
 H         1.578305        -1.047266         1.962620
