19
Iteration:  2839charge 0 multiplicity 1
 C         3.703219        -2.515513        -0.094531
 C         3.041619        -1.239398         0.137380
 O         2.410494        -0.644863        -0.931178
 C         1.598218         0.200813        -0.036706
 C         0.221595         0.109471        -0.527803
 C         2.282962         1.598985         0.057433
 O         3.607613         1.267060         0.641978
 C         3.507878        -0.081911         1.132516
 C         2.102773        -0.575701         1.193681
 H         3.108817        -3.232263        -0.726690
 H         4.685958        -2.369514        -0.436617
 H         3.714479        -2.984838         0.896030
 H         0.128650        -0.973058        -0.754378
 H        -0.534061         0.355436         0.191156
 H         0.067358         0.795453        -1.438021
 H         2.403770         2.003032        -0.915548
 H         1.724562         2.239334         0.781490
 H         4.366729        -0.160539         1.759463
 H         1.595328        -0.991666         2.048004
