19
Iteration:   838charge 0 multiplicity 1
 C         4.016200        -2.331499        -0.074687
 C         3.033299        -1.231485         0.201344
 O         2.017177        -0.872389        -0.775863
 C         1.531052         0.195364         0.176190
 C         0.077321         0.106864         0.329209
 C         2.299530         1.426737        -0.315420
 O         3.603219         1.120732        -0.068932
 C         3.627085         0.074580         0.860208
 C         2.308563        -0.340817         1.277355
 H         4.502342        -2.699828         0.913629
 H         3.593323        -3.010433        -0.707421
 H         4.796792        -1.898189        -0.753458
 H        -0.504950         0.673801        -0.388248
 H        -0.298952        -0.895659         0.059917
 H        -0.064549         0.368766         1.414059
 H         2.068840         1.649496        -1.359740
 H         2.097535         2.288239         0.239535
 H         4.396323        -0.190567         1.459813
 H         1.806935        -0.472067         2.288951
