19
Iteration:  2955charge 0 multiplicity 1
 C         3.581189        -2.571477        -0.094590
 C         3.065064        -1.237571         0.267872
 O         2.561137        -0.607592        -0.901912
 C         1.663491         0.137851         0.007492
 C         0.178979         0.131259        -0.593971
 C         2.236113         1.609340         0.032545
 O         3.572488         1.260944         0.515926
 C         3.561531        -0.019119         1.162513
 C         2.115519        -0.584648         1.237637
 H         2.706785        -3.151668        -0.372490
 H         4.206958        -2.466695        -1.026957
 H         3.996761        -3.215479         0.658372
 H         0.231311        -0.412776        -1.537303
 H        -0.509857        -0.475614         0.104657
 H        -0.285950         1.104974        -0.700395
 H         2.251974         2.132430        -1.021472
 H         1.685583         2.155140         0.838506
 H         4.174151        -0.012400         2.028526
 H         1.642030        -1.100333         2.092662
