19
Iteration:  3738charge 0 multiplicity 1
 C         3.586864        -2.548369        -0.013155
 C         3.055993        -1.231621         0.232353
 O         2.588325        -0.592512        -0.941768
 C         1.641898         0.179924        -0.117659
 C         0.191280         0.041744        -0.410956
 C         2.283654         1.587067        -0.038914
 O         3.625568         1.250122         0.529296
 C         3.461545        -0.122194         1.112485
 C         2.045560        -0.480582         1.200935
 H         2.918786        -3.018106        -0.773196
 H         4.572262        -2.556264        -0.539262
 H         3.555400        -3.201281         0.928531
 H        -0.341528         0.968473        -0.085343
 H        -0.107609        -0.143499        -1.386139
 H        -0.143847        -0.789361         0.191536
 H         2.477918         2.095512        -0.930645
 H         1.782736         2.352533         0.618419
 H         4.141710        -0.100988         1.957142
 H         1.579569        -0.644367         2.151833
