19
Iteration:  3420charge 0 multiplicity 1
 C         3.826343        -2.555884         0.101177
 C         2.989159        -1.335325         0.107864
 O         2.397951        -0.732096        -1.065962
 C         1.636487         0.214778        -0.069864
 C         0.213647         0.283972        -0.509471
 C         2.297508         1.591787         0.034947
 O         3.534449         1.331414         0.756367
 C         3.493701        -0.082551         1.049914
 C         2.113843        -0.623289         1.130545
 H         3.214033        -3.427513        -0.206022
 H         4.603293        -2.311991        -0.579198
 H         4.207429        -2.837124         1.064283
 H        -0.054434         0.733675        -1.483201
 H        -0.282141        -0.750680        -0.353802
 H        -0.357849         0.931900         0.170345
 H         2.515976         1.900524        -0.960446
 H         1.617656         2.294349         0.497989
 H         4.249622        -0.388429         1.770787
 H         1.568820        -1.061342         2.008781
