19
Iteration:  4809charge 0 multiplicity 1
 C         3.587458        -2.470185        -0.265516
 C         3.092728        -1.187996         0.167378
 O         2.488618        -0.504956        -0.959745
 C         1.606859         0.148328         0.009581
 C         0.269747         0.006288        -0.537168
 C         2.234147         1.573524         0.123744
 O         3.587960         1.337918         0.808466
 C         3.499432        -0.126956         1.165609
 C         2.146176        -0.658660         1.141494
 H         2.795232        -3.142384        -0.555797
 H         4.054709        -2.295491        -1.243612
 H         4.266557        -3.023579         0.430295
 H         0.395945        -0.241596        -1.615437
 H        -0.312852        -0.815299        -0.231655
 H        -0.269913         0.994518        -0.532691
 H         2.304709         1.745698        -0.950506
 H         1.627342         2.274169         0.703610
 H         4.227446        -0.486175         1.969805
 H         1.503061        -1.143000         1.918997
