19
Iteration:   263
 C         4.050802        -2.354551         0.029561
 C         3.133513        -1.206440         0.139946
 O         2.094762        -0.919686        -0.938066
 C         1.495390         0.085641         0.157775
 C        -0.002578         0.248245         0.337355
 C         2.236928         1.414321        -0.215282
 O         3.648894         1.219659        -0.038558
 C         3.620038         0.039545         0.779597
 C         2.245783        -0.434650         1.308414
 H         4.768694        -2.325288         0.928943
 H         3.495412        -3.333024        -0.003157
 H         4.564625        -2.095808        -0.860370
 H        -0.433981         1.057340        -0.267633
 H        -0.658612        -0.625862         0.185017
 H        -0.231942         0.646567         1.358232
 H         2.136328         1.723527        -1.252671
 H         1.845639         2.257870         0.445213
 H         4.375406        -0.022888         1.479714
 H         1.924129        -1.005873         2.255257
