19
Iteration:  4371charge 0 multiplicity 1
 C         3.845387        -2.512501         0.086837
 C         3.151492        -1.228456         0.282163
 O         2.411174        -0.750145        -0.998875
 C         1.546614         0.172236        -0.157700
 C         0.044181         0.273759        -0.449461
 C         2.317748         1.524864        -0.098923
 O         3.656096         1.159527         0.579477
 C         3.497785        -0.115100         1.190820
 C         2.005742        -0.462870         1.130740
 H         3.273804        -3.199654        -0.571680
 H         4.813839        -2.312732        -0.374825
 H         4.053130        -2.908529         1.029070
 H        -0.515165         0.295835         0.434336
 H        -0.238004         1.340718        -0.770509
 H        -0.306720        -0.392347        -1.221828
 H         2.547685         2.097635        -0.988465
 H         1.794873         2.214813         0.530138
 H         4.266096        -0.281325         1.921242
 H         1.379296        -0.644123         2.024314
