19
Iteration:   272charge 0 multiplicity 1
 C         3.994190        -2.432580         0.060443
 C         3.067739        -1.213000         0.163426
 O         2.134308        -0.885736        -0.861807
 C         1.503051         0.135761         0.123938
 C        -0.022321         0.216462         0.308247
 C         2.165481         1.549017        -0.264476
 O         3.595471         1.215678        -0.001951
 C         3.675873         0.026495         0.756861
 C         2.384910        -0.479049         1.276719
 H         4.716211        -2.534891         0.933002
 H         3.545870        -3.398370        -0.169537
 H         4.670472        -2.300539        -0.844911
 H        -0.399359         1.132058        -0.249040
 H        -0.432644        -0.781671         0.008350
 H        -0.312856         0.349813         1.416518
 H         2.062456         1.789229        -1.335623
 H         1.756956         2.400440         0.339932
 H         4.490599        -0.036545         1.469087
 H         2.038805        -0.949669         2.246270
