19
Iteration:  4704
 C         3.810621        -2.508942        -0.145568
 C         3.033721        -1.245609         0.162671
 O         2.432640        -0.666260        -1.025399
 C         1.621903         0.208704        -0.093350
 C         0.169571         0.236209        -0.485599
 C         2.249586         1.587762         0.132539
 O         3.567850         1.227064         0.689760
 C         3.482940        -0.074213         1.156985
 C         2.109112        -0.666851         1.180727
 H         3.177511        -3.139009        -0.697438
 H         4.731564        -2.207430        -0.674824
 H         4.152055        -3.078317         0.750145
 H        -0.290732         1.115246        -0.053248
 H         0.103688         0.222680        -1.539619
 H        -0.273952        -0.730713        -0.192880
 H         2.476569         2.191815        -0.752189
 H         1.496178         2.169513         0.764692
 H         4.237586        -0.372117         1.934830
 H         1.502117        -0.996141         2.049255
