19
Iteration:  1014charge 0 multiplicity 1
 C         3.891327        -2.488262        -0.019459
 C         3.139359        -1.229978         0.147279
 O         2.114289        -1.021671        -0.748261
 C         1.565202         0.012914         0.106160
 C         0.057934         0.352882         0.199290
 C         2.112890         1.411404        -0.299433
 O         3.499951         1.332872         0.050783
 C         3.688412         0.200853         0.807037
 C         2.467602        -0.502053         1.296921
 H         4.693836        -2.469634         0.780541
 H         3.208941        -3.333600         0.244377
 H         4.533343        -2.523718        -0.941345
 H        -0.062974         1.281116        -0.367309
 H        -0.529335        -0.499471        -0.085956
 H        -0.170726         0.599269         1.262139
 H         1.930860         1.587443        -1.409054
 H         1.583890         2.247419         0.338827
 H         4.768835         0.283678         1.260305
 H         2.181085        -0.664813         2.324734
