19
Iteration:   365charge 0 multiplicity 1
 C         3.618491        -2.555846         0.180423
 C         3.063707        -1.162767         0.091863
 O         2.275713        -0.662789        -0.956741
 C         1.566527         0.216145         0.083330
 C         0.129843        -0.187372         0.229928
 C         2.181570         1.576372        -0.057856
 O         3.542562         1.319632         0.005931
 C         3.736624         0.082396         0.708041
 C         2.426299        -0.448829         1.231966
 H         4.463957        -2.503309         0.832041
 H         2.747049        -3.247242         0.503957
 H         3.886450        -3.055012        -0.806694
 H        -0.513758        -0.115421        -0.661706
 H         0.172423        -1.203565         0.613084
 H        -0.290737         0.349058         1.088428
 H         1.964292         2.013635        -1.060319
 H         2.035306         2.366702         0.756455
 H         4.758338         0.117310         1.287014
 H         2.054929        -0.868987         2.136735
