19
Iteration:  3008charge 0 multiplicity 1
 C         3.561796        -2.578295         0.169103
 C         3.032971        -1.200804         0.078375
 O         2.453770        -0.605121        -1.079189
 C         1.669145         0.188347        -0.095422
 C         0.198210         0.080235        -0.508979
 C         2.321562         1.591655         0.114522
 O         3.582115         1.314423         0.662882
 C         3.516875        -0.061212         1.121210
 C         2.153519        -0.572861         1.077275
 H         3.017263        -3.268860        -0.361402
 H         4.576787        -2.601256        -0.303675
 H         3.641202        -2.906149         1.169005
 H         0.046134         0.208937        -1.583630
 H        -0.023261        -1.055840        -0.347876
 H        -0.407335         0.638955         0.188750
 H         2.422599         2.078011        -0.853282
 H         1.754848         2.136301         0.866117
 H         4.411500        -0.314041         1.613250
 H         1.589518        -1.025318         1.913784
