19
Iteration:  2585charge 0 multiplicity 1
 C         3.632386        -2.555934        -0.196888
 C         3.125014        -1.142054         0.063070
 O         2.680357        -0.340354        -0.998597
 C         1.598105         0.225156        -0.091041
 C         0.178342         0.001906        -0.413987
 C         2.170057         1.543534         0.168957
 O         3.536291         1.235029         0.687158
 C         3.437819        -0.189383         1.215880
 C         2.092030        -0.681081         1.125717
 H         2.916090        -3.317275        -0.324478
 H         4.183980        -2.523061        -1.100986
 H         4.416459        -2.757267         0.506743
 H         0.199809        -1.049116        -0.827761
 H        -0.527930         0.223345         0.438993
 H        -0.191938         0.529022        -1.283614
 H         2.516520         2.198830        -0.615668
 H         1.661564         2.105112         0.933719
 H         4.088796        -0.391020         2.074080
 H         1.522014        -1.151819         1.840852
