19
Iteration:  2673charge 0 multiplicity 1
 C         3.951455        -2.425672        -0.155221
 C         3.162275        -1.187585         0.116656
 O         2.486455        -0.562540        -0.981860
 C         1.522815         0.210830        -0.058849
 C         0.092731         0.265226        -0.494543
 C         2.274096         1.527134         0.137523
 O         3.573224         1.092533         0.621839
 C         3.370176        -0.139710         1.185940
 C         2.007116        -0.706427         1.211242
 H         3.493807        -3.016409        -0.915398
 H         4.901909        -2.080874        -0.489795
 H         4.100200        -3.036557         0.706371
 H        -0.169363         1.193691        -1.064543
 H        -0.190720        -0.721246        -1.019881
 H        -0.475762         0.260351         0.406377
 H         2.539265         1.927500        -0.872513
 H         1.743592         2.265820         0.817231
 H         4.168354        -0.274540         1.859305
 H         1.415100        -0.933414         2.139367
