19
Iteration:  4552
 C         3.899221        -2.453738        -0.153406
 C         3.097170        -1.203375         0.265891
 O         2.386779        -0.752283        -0.902777
 C         1.565270         0.225695        -0.113322
 C         0.112013         0.280992        -0.546400
 C         2.375805         1.522693        -0.000329
 O         3.635462         1.240153         0.639907
 C         3.403602        -0.151282         1.228252
 C         1.986660        -0.614265         1.230671
 H         3.271848        -2.810668        -0.942698
 H         4.804223        -2.236544        -0.751674
 H         4.040601        -3.237428         0.656717
 H         0.059479        -0.185516        -1.568153
 H        -0.413859        -0.190637         0.279094
 H        -0.286633         1.278229        -0.882707
 H         2.613015         1.760799        -1.013796
 H         1.786220         2.266945         0.478948
 H         4.147945        -0.406490         1.980936
 H         1.393862        -0.735537         2.161776
