19
Iteration:  2640
 C         3.728513        -2.591424        -0.079318
 C         3.137897        -1.194525         0.029834
 O         2.383204        -0.567142        -1.054849
 C         1.563825         0.131477        -0.072590
 C         0.189673         0.181904        -0.580846
 C         2.190194         1.523440         0.257935
 O         3.527576         1.328939         0.844303
 C         3.570334        -0.012849         1.080245
 C         2.216068        -0.728296         1.132875
 H         3.222109        -3.120889        -0.827851
 H         4.723420        -2.464423        -0.467162
 H         3.732522        -3.078793         0.866761
 H         0.137230         0.294302        -1.699064
 H        -0.252568        -0.878631        -0.418669
 H        -0.330435         0.926667        -0.034459
 H         2.410900         2.185690        -0.608731
 H         1.638070         2.227168         0.935075
 H         4.430280        -0.293512         1.593187
 H         1.606417        -1.103593         1.935453
