19
Iteration:  3401
 C         3.820875        -2.559931         0.104968
 C         3.082406        -1.151851         0.110970
 O         2.380917        -0.665742        -1.022168
 C         1.571634         0.237513        -0.169269
 C         0.032581         0.137672        -0.506304
 C         2.366015         1.611515         0.111358
 O         3.618666         1.203099         0.685426
 C         3.538646        -0.114094         1.077908
 C         2.071542        -0.560797         1.110781
 H         3.259536        -3.311887        -0.318140
 H         4.840647        -2.476296        -0.352378
 H         3.889193        -2.807007         1.194269
 H         0.110549         0.254643        -1.628050
 H        -0.400086        -0.831111        -0.307213
 H        -0.541493         0.997461        -0.177337
 H         2.583518         2.195088        -0.773490
 H         1.852689         2.129162         0.923631
 H         4.197231        -0.580238         1.805974
 H         1.460751        -0.772409         2.049159
