19
Iteration:  1157
 C         3.837613        -2.555491         0.190172
 C         3.125562        -1.221295         0.138854
 O         2.148578        -0.866389        -0.817876
 C         1.486830         0.178344         0.122374
 C        -0.007275         0.059545         0.232095
 C         2.176522         1.510189        -0.170697
 O         3.591103         1.390545        -0.004258
 C         3.793562         0.056413         0.667668
 C         2.396659        -0.440599         1.194387
 H         4.831882        -2.300330         0.491739
 H         3.308863        -3.249006         0.948566
 H         3.865226        -3.011296        -0.823992
 H        -0.360856        -0.113201        -0.778563
 H        -0.157333        -0.786906         0.884283
 H        -0.597209         0.947011         0.436425
 H         1.972263         1.819013        -1.239268
 H         1.734531         2.303054         0.489438
 H         4.747379         0.025034         1.123938
 H         2.151352        -0.472498         2.220233
