19
Iteration:  3027
 C         3.771607        -2.577802         0.173517
 C         3.098102        -1.242339         0.109276
 O         2.416361        -0.574535        -1.074248
 C         1.567539         0.267777        -0.177048
 C         0.150641         0.092842        -0.444700
 C         2.329617         1.610601         0.017277
 O         3.648086         1.211287         0.695467
 C         3.499574        -0.149749         1.059393
 C         2.015006        -0.511752         1.098034
 H         2.986144        -3.389538        -0.133135
 H         4.778735        -2.497534        -0.323725
 H         3.819333        -2.719722         1.275664
 H        -0.189518         0.722377        -1.254288
 H         0.001045        -0.960568        -0.823785
 H        -0.462838         0.305306         0.467592
 H         2.672169         2.122116        -0.824847
 H         1.810594         2.222960         0.786624
 H         4.056631        -0.400659         1.978555
 H         1.365674        -0.868972         1.990626
