19
Iteration:  3138
 C         3.676253        -2.529100         0.168136
 C         3.115110        -1.199091         0.111085
 O         2.570016        -0.538335        -1.038031
 C         1.590556         0.237207        -0.106640
 C         0.129708         0.140273        -0.467614
 C         2.266465         1.540165         0.022913
 O         3.599981         1.224467         0.643944
 C         3.444482        -0.134532         1.104534
 C         2.085095        -0.616696         1.099206
 H         2.911776        -3.342897        -0.074884
 H         4.544792        -2.596281        -0.631245
 H         4.150352        -2.844856         1.120729
 H        -0.174689         0.960822        -1.113983
 H        -0.145069        -0.909261        -0.871025
 H        -0.470965         0.306058         0.419490
 H         2.550421         2.005006        -0.925905
 H         1.652407         2.290961         0.607717
 H         4.156904        -0.286001         1.936678
 H         1.469163        -1.219709         1.772277
