19
Iteration:  4512charge 0 multiplicity 1
 C         3.829331        -2.417519        -0.006789
 C         2.951741        -1.258665         0.192210
 O         2.455475        -0.661337        -0.975283
 C         1.599526         0.288202        -0.058124
 C         0.138741         0.225395        -0.529245
 C         2.358104         1.543196        -0.019747
 O         3.630191         1.181265         0.651529
 C         3.446253        -0.113769         1.138793
 C         2.045376        -0.649754         1.192936
 H         3.164604        -3.129933        -0.683671
 H         4.747372        -2.312679        -0.538090
 H         3.998797        -2.869429         0.946496
 H        -0.025217         0.416393        -1.543018
 H        -0.161373        -0.866836        -0.393718
 H        -0.496975         0.683880         0.172559
 H         2.491361         1.890747        -1.070880
 H         1.848063         2.396840         0.558455
 H         4.246784        -0.451464         1.843183
 H         1.438598        -0.886740         2.089327
