19
Iteration:  1480charge 0 multiplicity 1
 C         3.552677        -2.643482         0.061108
 C         3.168019        -1.182875         0.181356
 O         2.233774        -0.769249        -0.855787
 C         1.642723         0.039110         0.149802
 C         0.110523        -0.055215         0.063663
 C         2.121466         1.508861        -0.092345
 O         3.502270         1.419605         0.101318
 C         3.784877         0.191180         0.726213
 C         2.515449        -0.364091         1.233267
 H         3.862568        -2.867341        -1.003030
 H         4.326942        -3.009664         0.773674
 H         2.516424        -3.094954         0.234611
 H        -0.284397        -0.244023         1.050709
 H        -0.307918         0.914217        -0.202840
 H        -0.258878        -0.864923        -0.571113
 H         1.918181         1.664161        -1.152201
 H         1.590111         2.209577         0.558886
 H         4.757905         0.150891         1.242136
 H         2.405017        -0.584693         2.365006
