19
Iteration:  4780
 C         3.815910        -2.514547        -0.163525
 C         3.168718        -1.216450         0.127437
 O         2.457114        -0.611505        -0.995557
 C         1.571751         0.194058        -0.142388
 C         0.059409         0.197536        -0.511502
 C         2.273413         1.614840         0.176781
 O         3.546695         1.236839         0.751345
 C         3.463320        -0.159923         1.169785
 C         2.156230        -0.647760         1.123466
 H         3.101722        -3.187971        -0.607475
 H         4.653753        -2.295981        -0.916561
 H         4.186045        -3.086557         0.741449
 H        -0.149419         0.576098        -1.560434
 H        -0.344285        -0.795327        -0.557404
 H        -0.346314         0.881122         0.310142
 H         2.399911         2.145596        -0.770641
 H         1.655194         2.135091         0.932561
 H         4.052074        -0.405470         2.052605
 H         1.678244        -0.989521         2.042657
