19
Iteration:  3670
 C         3.697066        -2.605402         0.118727
 C         3.063654        -1.198059         0.204118
 O         2.419407        -0.663608        -1.074891
 C         1.606076         0.152021        -0.090270
 C         0.198968         0.287173        -0.527565
 C         2.233857         1.499559         0.085502
 O         3.553207         1.265378         0.594619
 C         3.579672        -0.049163         1.067630
 C         2.215968        -0.579765         1.194080
 H         2.901548        -3.489555         0.154839
 H         4.222811        -2.688002        -0.804390
 H         4.363644        -2.838860         0.992310
 H         0.058972         1.260005        -1.044890
 H        -0.178335        -0.397082        -1.277855
 H        -0.558584         0.240229         0.241722
 H         2.208654         2.101850        -0.814463
 H         1.563082         2.047812         0.763345
 H         4.164796        -0.284839         1.975978
 H         1.604687        -1.060514         1.984205
