19
Iteration:   117charge 0 multiplicity 1
 C         3.653336        -2.464577         0.156779
 C         3.152998        -1.094398        -0.003253
 O         2.144660        -0.748361        -0.924752
 C         1.536133         0.114194         0.086465
 C         0.108690        -0.121549         0.136250
 C         2.243383         1.501514        -0.039749
 O         3.636234         1.304372         0.079401
 C         3.707771         0.106732         0.730134
 C         2.428088        -0.430172         1.276800
 H         4.052020        -2.452069         1.144944
 H         2.830322        -3.183476         0.148726
 H         4.486771        -2.760649        -0.623946
 H        -0.554278         0.724248        -0.320907
 H        -0.338757        -0.971621        -0.404404
 H        -0.351018        -0.158913         1.148568
 H         1.996074         1.971371        -1.023117
 H         1.745906         2.033316         0.816569
 H         4.509628         0.000697         1.420534
 H         2.215878        -0.841231         2.188874
