19
Iteration:  3824charge 0 multiplicity 1
 C         3.872090        -2.600411         0.159121
 C         3.154114        -1.264978         0.174814
 O         2.448696        -0.726210        -0.922172
 C         1.538352         0.183059        -0.137006
 C         0.073312         0.333098        -0.415385
 C         2.366117         1.620067        -0.056272
 O         3.628094         1.190369         0.555077
 C         3.426291        -0.092448         1.031449
 C         1.979856        -0.531260         1.106145
 H         3.060530        -3.351682         0.255254
 H         4.242063        -2.855416        -0.792059
 H         4.704241        -2.644138         0.921756
 H        -0.435001        -0.353292         0.349975
 H        -0.196085         1.345782        -0.316583
 H        -0.229857        -0.085253        -1.365709
 H         2.473112         1.971680        -1.049362
 H         1.762176         2.169190         0.606923
 H         4.058546        -0.158411         1.955856
 H         1.463906        -0.640412         2.064647
