19
Iteration:  2552
 C         3.823485        -2.446894        -0.273988
 C         3.083489        -1.158496         0.059575
 O         2.397820        -0.582984        -1.004640
 C         1.551378         0.165032        -0.035721
 C         0.141745         0.119189        -0.595884
 C         2.302491         1.579255         0.224874
 O         3.609772         1.261018         0.795485
 C         3.464070        -0.124686         1.205163
 C         2.090641        -0.683865         1.201096
 H         3.313740        -3.364139        -0.369386
 H         4.311404        -2.173407        -1.184258
 H         4.609685        -2.676281         0.433866
 H        -0.266000        -0.810715        -0.094299
 H        -0.622136         0.911003        -0.372076
 H         0.314194        -0.074329        -1.658557
 H         2.431589         2.291332        -0.617083
 H         1.659066         2.019678         0.972487
 H         4.134104        -0.675945         1.937828
 H         1.554334        -1.089579         2.001595
