19
Iteration:   717
 C         3.508517        -2.506598         0.037239
 C         3.085541        -1.131144         0.194940
 O         2.329147        -0.671075        -0.935035
 C         1.575875         0.199315         0.171791
 C         0.182896        -0.223528         0.272997
 C         2.117317         1.502691        -0.124853
 O         3.581163         1.238092        -0.088297
 C         3.764804         0.133555         0.780300
 C         2.402531        -0.382347         1.261137
 H         4.354925        -2.693709         0.758027
 H         2.696554        -3.177638         0.133737
 H         3.803246        -2.717980        -1.030406
 H        -0.499865        -0.014455        -0.616938
 H         0.170308        -1.330823         0.627422
 H        -0.184089         0.331250         1.188354
 H         1.774693         1.977687        -1.086462
 H         1.983721         2.319560         0.693048
 H         4.685980         0.359033         1.457102
 H         2.051646        -0.630016         2.216557
