19
Iteration:  2193
 C         3.692945        -2.512967        -0.263747
 C         3.182592        -1.111385         0.023814
 O         2.525515        -0.450517        -1.052991
 C         1.625183         0.172514        -0.021907
 C         0.139398         0.096846        -0.408183
 C         2.247998         1.491867         0.207978
 O         3.453012         1.303779         0.887685
 C         3.489506        -0.114693         1.112400
 C         2.208069        -0.748746         1.075619
 H         4.611011        -2.598782        -0.862151
 H         3.871592        -3.053462         0.696054
 H         2.815103        -3.012306        -0.689612
 H        -0.324388         1.013038        -0.772079
 H         0.071144        -0.587855        -1.273505
 H        -0.534327        -0.323026         0.381643
 H         2.345515         1.885944        -0.780152
 H         1.562994         2.182661         0.737710
 H         4.237198        -0.533338         1.720908
 H         1.715580        -1.298267         1.900026
