19
Iteration:   360charge 0 multiplicity 1
 C         3.539313        -2.568793         0.185609
 C         3.059120        -1.198135         0.090227
 O         2.343374        -0.660644        -1.000544
 C         1.565856         0.232893         0.115840
 C         0.164190        -0.207949         0.249004
 C         2.125316         1.610778        -0.032833
 O         3.534309         1.326362        -0.028601
 C         3.818895         0.092798         0.711285
 C         2.418917        -0.479438         1.239534
 H         4.406989        -2.557971         0.925020
 H         2.788270        -3.234872         0.598192
 H         3.854702        -2.825244        -0.803444
 H        -0.530930         0.029017        -0.566636
 H         0.192007        -1.307278         0.451876
 H        -0.398336         0.299202         1.068489
 H         1.900416         1.978490        -1.031741
 H         1.865724         2.390894         0.657826
 H         4.674156         0.091135         1.297220
 H         1.957075        -0.698913         2.251633
