19
Iteration:  1254
 C         3.724602        -2.538450         0.146380
 C         3.119656        -1.141636         0.228345
 O         2.039541        -1.001823        -0.786858
 C         1.625948         0.076011         0.202963
 C         0.012266         0.033046         0.106114
 C         2.141893         1.473775        -0.239111
 O         3.596371         1.427595        -0.038525
 C         3.804947         0.193340         0.701784
 C         2.555482        -0.366940         1.309585
 H         3.962076        -2.915115         1.116160
 H         2.943059        -3.120745        -0.508773
 H         4.622154        -2.453349        -0.518235
 H        -0.407999         0.997971        -0.336315
 H        -0.206709        -0.845292        -0.559492
 H        -0.634332        -0.057768         1.075456
 H         1.780820         1.720990        -1.272951
 H         1.704409         2.248057         0.404161
 H         4.800060        -0.058229         1.046557
 H         2.490588        -0.486496         2.390122
