19
Iteration:  4384
 C         3.783154        -2.492275         0.000375
 C         3.049529        -1.212550         0.247761
 O         2.424548        -0.718016        -0.936397
 C         1.646592         0.199386        -0.121390
 C         0.140019         0.213269        -0.487330
 C         2.359696         1.563973        -0.057256
 O         3.614097         1.141592         0.509894
 C         3.408409        -0.058068         1.184299
 C         2.053903        -0.495292         1.262472
 H         3.173458        -3.210620        -0.541190
 H         4.717300        -2.289858        -0.668375
 H         4.085560        -2.980798         0.914286
 H        -0.425528         0.059389         0.450746
 H        -0.067999         1.086472        -1.203056
 H        -0.160542        -0.697165        -1.015138
 H         2.618014         1.715810        -1.111094
 H         1.856280         2.389627         0.489347
 H         3.912462        -0.226141         2.151261
 H         1.428687        -0.654302         2.128026
