19
Iteration:  3324
 C         3.579455        -2.553441         0.020349
 C         3.130885        -1.167624         0.118385
 O         2.401640        -0.756668        -0.980761
 C         1.575521         0.138293        -0.114915
 C         0.184387         0.120511        -0.580635
 C         2.356464         1.581476         0.054270
 O         3.581596         1.357320         0.740870
 C         3.527774         0.029938         1.143985
 C         2.196925        -0.607674         1.169676
 H         2.717061        -3.125224        -0.229031
 H         4.369065        -2.605567        -0.781262
 H         3.967706        -2.971578         0.966443
 H         0.131500         0.657778        -1.538896
 H        -0.035539        -0.940444        -0.702989
 H        -0.526757         0.559410         0.072752
 H         2.390449         1.988313        -0.933037
 H         1.900575         2.396255         0.722501
 H         4.297745        -0.353525         1.794494
 H         1.493383        -1.115086         1.857205
