19
Iteration:  4621
 C         3.622585        -2.556527         0.077804
 C         3.054335        -1.196797         0.058125
 O         2.580337        -0.595760        -1.189767
 C         1.676064         0.230256        -0.114278
 C         0.124755         0.127878        -0.487700
 C         2.249981         1.565868         0.244998
 O         3.584081         1.298030         0.684509
 C         3.494187        -0.131566         1.189555
 C         2.131035        -0.600598         1.051629
 H         2.915566        -3.513842         0.145073
 H         4.185886        -2.789914        -0.820145
 H         4.223680        -2.464340         0.951019
 H        -0.309658        -0.754431        -0.035387
 H        -0.408909         1.034731        -0.036959
 H        -0.108355        -0.162361        -1.474404
 H         2.316826         2.265891        -0.596160
 H         1.638864         1.918786         1.064134
 H         4.250100        -0.406530         1.935610
 H         1.490161        -1.023712         1.816991
