19
Iteration:  3062charge 0 multiplicity 1
 C         3.820767        -2.453748         0.002388
 C         3.080944        -1.211740         0.293013
 O         2.518161        -0.638596        -0.953999
 C         1.568809         0.093585        -0.085166
 C         0.157609         0.361308        -0.493034
 C         2.288820         1.453712        -0.129890
 O         3.616225         1.178252         0.583477
 C         3.419433        -0.122009         1.244755
 C         1.956617        -0.585227         1.151561
 H         3.247098        -3.313366        -0.328235
 H         4.564762        -2.304832        -0.854256
 H         4.446493        -2.715113         0.848481
 H        -0.023568         1.384416        -0.861056
 H        -0.067572        -0.511098        -1.260010
 H        -0.499179         0.171741         0.356356
 H         2.382207         1.887863        -1.131908
 H         1.776145         2.254298         0.435732
 H         4.102124        -0.194318         2.059503
 H         1.456656        -1.134340         1.981485
