19
Iteration:   102
 C         3.819105        -2.508063         0.058492
 C         3.152746        -1.174885         0.145801
 O         2.086663        -0.825119        -0.881642
 C         1.537045         0.130554         0.127776
 C        -0.037283         0.060971         0.085075
 C         2.141183         1.509309        -0.142892
 O         3.582849         1.338752         0.136377
 C         3.803776         0.065130         0.804050
 C         2.475655        -0.451606         1.229651
 H         4.384382        -2.815903         1.000995
 H         3.016624        -3.304392        -0.005009
 H         4.486842        -2.567398        -0.742347
 H        -0.462946         0.990205        -0.254520
 H        -0.119643        -0.807431        -0.577480
 H        -0.436985        -0.118436         1.099650
 H         2.070026         1.858323        -1.168861
 H         1.782881         2.348156         0.492685
 H         4.830454        -0.061790         1.189470
 H         2.072200        -0.721334         2.295208
