19
Iteration:  3774
 C         3.704783        -2.532954         0.094647
 C         3.138367        -1.177152         0.143704
 O         2.377435        -0.733296        -0.999468
 C         1.564098         0.175429        -0.019205
 C         0.122390         0.260522        -0.521574
 C         2.326979         1.549030         0.002640
 O         3.618830         1.241537         0.573203
 C         3.535146        -0.071197         1.077004
 C         2.122343        -0.564780         1.212922
 H         2.951955        -3.147514        -0.342166
 H         4.795932        -2.623373        -0.327050
 H         3.841921        -2.868894         1.124865
 H        -0.571754         0.487352         0.251488
 H         0.168247         1.027744        -1.388324
 H        -0.213323        -0.729809        -0.925610
 H         2.343122         1.663173        -1.102154
 H         1.622227         2.180825         0.603319
 H         4.226508        -0.327998         1.921980
 H         1.778039        -0.865143         2.236973
