19
Iteration:  4642charge 0 multiplicity 1
 C         3.585538        -2.582226        -0.026685
 C         3.114787        -1.149976         0.118686
 O         2.557682        -0.488060        -0.999287
 C         1.651508         0.226935        -0.126969
 C         0.230353         0.002517        -0.476883
 C         2.239101         1.573180         0.165306
 O         3.558472         1.258540         0.697955
 C         3.505353        -0.105761         1.077977
 C         2.089930        -0.585498         1.096942
 H         2.598540        -3.233381         0.086051
 H         3.930297        -2.786076        -1.037722
 H         4.256972        -3.013040         0.711640
 H        -0.441682        -0.573525         0.134618
 H        -0.276559         1.056977        -0.608944
 H         0.224284        -0.636625        -1.343044
 H         2.599945         2.176615        -0.658940
 H         1.671869         2.097808         0.907523
 H         4.173696        -0.359659         1.915195
 H         1.464702        -1.000414         1.891430
