19
Iteration:  1214charge 0 multiplicity 1
 C         3.950651        -2.472570         0.009235
 C         3.119616        -1.198040         0.272377
 O         2.110856        -0.913937        -0.783434
 C         1.431801         0.130472         0.160228
 C        -0.030126         0.191639         0.229622
 C         2.172203         1.391347        -0.372485
 O         3.610119         1.271960        -0.030847
 C         3.700200         0.101043         0.829561
 C         2.429259        -0.377967         1.358634
 H         4.910150        -2.460038         0.571724
 H         3.464250        -3.503585         0.020137
 H         4.157442        -2.286726        -1.046968
 H        -0.285781         0.872018        -0.564265
 H        -0.475318        -0.701209        -0.252657
 H        -0.353901         0.358976         1.220392
 H         2.167646         1.400251        -1.487709
 H         1.776771         2.389039        -0.043529
 H         4.646403         0.127255         1.365277
 H         2.212785        -0.528820         2.507337
