19
Iteration:   759
 C         3.565647        -2.614450         0.116902
 C         3.090286        -1.193692         0.099931
 O         2.163547        -0.828677        -0.899495
 C         1.533611         0.125385         0.193470
 C         0.038218        -0.113502         0.155254
 C         2.202112         1.538096        -0.013245
 O         3.593997         1.488909         0.109076
 C         3.876906         0.192589         0.544554
 C         2.512272        -0.421695         1.233556
 H         4.556270        -2.582761         0.598795
 H         2.898084        -3.205756         0.789515
 H         3.692249        -3.058112        -0.912945
 H        -0.165000        -0.139953        -0.919017
 H        -0.072089        -1.014372         0.817423
 H        -0.723086         0.597530         0.399433
 H         1.964031         1.751468        -1.038660
 H         1.751849         2.285684         0.603626
 H         4.816007         0.017971         1.227903
 H         2.380091        -0.764524         2.212749
