19
Iteration:  4177charge 0 multiplicity 1
 C         3.886469        -2.540304         0.104721
 C         3.106101        -1.192551         0.136547
 O         2.390849        -0.633025        -1.006979
 C         1.495215         0.211021        -0.070144
 C         0.103289         0.316372        -0.461705
 C         2.334224         1.445593        -0.009212
 O         3.634831         1.144748         0.519041
 C         3.434129        -0.085277         1.164466
 C         2.071976        -0.566080         1.188359
 H         3.493886        -3.234175        -0.605502
 H         4.998512        -2.529625        -0.259769
 H         3.802843        -2.898271         1.111352
 H        -0.038843         1.376342        -0.224863
 H        -0.084002         0.105652        -1.548781
 H        -0.613818        -0.152117         0.212366
 H         2.494724         1.819821        -1.001384
 H         1.796949         2.051489         0.669995
 H         4.179599        -0.158657         1.979121
 H         1.431614        -1.042066         1.950279
