19
Iteration:  1611
 C         3.824776        -2.516182        -0.169216
 C         3.104085        -1.152740         0.088245
 O         2.212261        -0.811680        -0.835262
 C         1.547716         0.112983         0.075710
 C         0.063759         0.136108         0.009739
 C         2.150166         1.483743        -0.113096
 O         3.531694         1.387420         0.332809
 C         3.717595         0.025742         0.881492
 C         2.373866        -0.557203         1.307015
 H         3.995706        -2.933480         0.811383
 H         3.378566        -3.204741        -0.858483
 H         4.835075        -2.357622        -0.625223
 H        -0.161562         0.332386        -1.024274
 H        -0.384494        -0.795371         0.361451
 H        -0.305681         0.971043         0.580294
 H         2.209411         1.527313        -1.213086
 H         1.598063         2.381956         0.298084
 H         4.536630        -0.219520         1.510510
 H         2.054371        -0.708604         2.352559
