19
Iteration:  1054
 C         3.859106        -2.417738         0.190330
 C         3.091978        -1.204565         0.060137
 O         2.033791        -0.836449        -0.857905
 C         1.506201         0.202904         0.123859
 C        -0.050249         0.006891         0.336192
 C         2.296551         1.542022        -0.299679
 O         3.621978         1.288748         0.000014
 C         3.737432         0.053760         0.677362
 C         2.486462        -0.467053         1.259997
 H         4.078200        -2.545264         1.318947
 H         3.372411        -3.315151        -0.073972
 H         4.853284        -2.214593        -0.257374
 H        -0.742144         0.537666        -0.329604
 H        -0.455036        -1.020092         0.154315
 H        -0.326138         0.207520         1.393236
 H         2.203480         1.668821        -1.352760
 H         1.896516         2.379507         0.268225
 H         4.583385        -0.208053         1.267201
 H         1.957927        -0.727397         2.249785
