19
Iteration:  4221
 C         3.628789        -2.592002         0.133699
 C         3.071591        -1.207907         0.113554
 O         2.456840        -0.665737        -1.065893
 C         1.634673         0.145559        -0.123774
 C         0.174709         0.206433        -0.445459
 C         2.277684         1.529924         0.018251
 O         3.569004         1.279332         0.632508
 C         3.566822        -0.062910         1.056372
 C         2.123322        -0.488620         1.208196
 H         2.993384        -3.443837         0.243217
 H         4.372725        -2.870263        -0.739881
 H         4.220098        -2.492392         1.022390
 H        -0.462182         0.764651         0.211871
 H         0.225687         0.491903        -1.513747
 H        -0.335522        -0.762475        -0.426447
 H         2.422372         2.072821        -0.908291
 H         1.726945         2.010327         0.805148
 H         4.250893        -0.446909         1.795310
 H         1.494104        -0.907843         2.025908
