19
Iteration:  3745
 C         3.632391        -2.621677        -0.013360
 C         3.039347        -1.249424         0.250518
 O         2.524603        -0.575503        -0.904642
 C         1.652367         0.180619        -0.131468
 C         0.188034         0.063918        -0.413760
 C         2.334341         1.625021        -0.029476
 O         3.616522         1.268990         0.527837
 C         3.490571        -0.091621         1.122000
 C         2.047974        -0.503136         1.164857
 H         2.898130        -3.167982        -0.696332
 H         4.593720        -2.454284        -0.364890
 H         3.674552        -3.301869         0.838025
 H        -0.390692         0.939769         0.005073
 H        -0.161260         0.021781        -1.498671
 H        -0.294876        -0.855359        -0.024730
 H         2.385147         2.128442        -1.063994
 H         1.612420         2.252302         0.514994
 H         4.211860        -0.056579         1.930736
 H         1.652617        -0.847690         2.114520
