19
Iteration:  3799charge 0 multiplicity 1
 C         3.811148        -2.533323         0.199237
 C         2.996881        -1.271152         0.186371
 O         2.353388        -0.759326        -1.051920
 C         1.588280         0.179546        -0.097430
 C         0.125056         0.392603        -0.471304
 C         2.296797         1.532688        -0.018084
 O         3.609563         1.241436         0.586601
 C         3.586902        -0.035607         1.093203
 C         2.125949        -0.624124         1.157621
 H         3.127872        -3.419453         0.082929
 H         4.573121        -2.535060        -0.526908
 H         4.325355        -2.568814         1.140095
 H        -0.562577         0.043533         0.320950
 H        -0.053145         1.419957        -0.892985
 H        -0.060342        -0.373628        -1.247450
 H         2.352332         1.824935        -1.103425
 H         1.628579         2.060783         0.635654
 H         4.458216        -0.150791         1.696821
 H         1.480796        -1.110958         1.858831
