19
Iteration:  3201charge 0 multiplicity 1
 C         3.660390        -2.585027         0.013056
 C         3.069124        -1.174221         0.118680
 O         2.362831        -0.588792        -0.961649
 C         1.607454         0.177419        -0.007226
 C         0.176639         0.070259        -0.670307
 C         2.311611         1.563591         0.026371
 O         3.627920         1.309951         0.714518
 C         3.519108        -0.037150         1.139096
 C         2.180655        -0.597847         1.233912
 H         3.081243        -3.114839        -0.776870
 H         4.624127        -2.640541        -0.389020
 H         3.643198        -2.969535         0.987794
 H         0.347917         0.058361        -1.709974
 H        -0.246061        -0.909117        -0.363554
 H        -0.524101         0.853078        -0.423680
 H         2.362115         2.025470        -0.937918
 H         1.530970         2.198209         0.568159
 H         4.361807        -0.374151         1.750059
 H         1.719597        -1.066409         2.132062
