19
Iteration:  2687charge 0 multiplicity 1
 C         4.013907        -2.359567        -0.191165
 C         3.043126        -1.231543         0.255559
 O         2.488572        -0.535965        -0.924161
 C         1.584852         0.169246        -0.109072
 C         0.014575         0.217297        -0.424892
 C         2.354931         1.479841         0.067125
 O         3.629103         1.114899         0.585878
 C         3.414865        -0.173861         1.251015
 C         1.930127        -0.620633         1.059504
 H         3.476008        -3.059880        -0.891122
 H         4.855573        -1.926927        -0.712117
 H         4.324680        -2.930971         0.677736
 H        -0.286672         1.235848        -0.749245
 H        -0.307528        -0.395307        -1.302446
 H        -0.555859        -0.012266         0.527294
 H         2.392097         2.025832        -0.830635
 H         1.855484         2.179581         0.781843
 H         3.889295        -0.522111         2.226417
 H         1.252063        -1.035423         1.906909
