19
Iteration:  2095charge 0 multiplicity 1
 C         3.891851        -2.463786        -0.134080
 C         3.150980        -1.205157         0.045206
 O         2.441283        -0.534542        -0.942111
 C         1.524071         0.137728        -0.035562
 C         0.059418         0.185258        -0.376874
 C         2.229622         1.527776         0.223699
 O         3.580970         1.180482         0.567552
 C         3.481699        -0.141259         1.067726
 C         2.128918        -0.635253         1.139611
 H         4.032075        -2.982496         0.780594
 H         3.359941        -3.014348        -0.887019
 H         4.780397        -2.229522        -0.636143
 H        -0.589101        -0.055757         0.467283
 H        -0.233854         1.207620        -0.643899
 H        -0.215711        -0.520626        -1.213872
 H         2.375775         2.097227        -0.699154
 H         1.724644         2.170054         0.983124
 H         4.296103        -0.294566         1.799616
 H         1.566659        -0.983473         2.001923
