19
Iteration:  4663
 C         3.553486        -2.617243        -0.170038
 C         3.139505        -1.185455         0.152769
 O         2.564184        -0.475943        -0.975061
 C         1.529417         0.229650        -0.008969
 C         0.106001         0.029556        -0.627154
 C         2.262636         1.605210         0.062612
 O         3.614898         1.275110         0.695968
 C         3.548850        -0.032534         1.239305
 C         2.178363        -0.707651         1.233748
 H         2.684127        -3.392433        -0.224312
 H         4.118999        -2.513361        -1.087211
 H         4.241455        -3.096631         0.536974
 H        -0.630234        -0.168990         0.171072
 H        -0.381017         0.987305        -1.173500
 H         0.141053        -0.936429        -1.155554
 H         2.374362         1.898798        -0.991081
 H         1.934984         2.388298         0.756957
 H         4.276906        -0.099267         2.080565
 H         1.614058        -1.107148         2.088628
