19
Iteration:  4394
 C         3.746175        -2.505074        -0.011021
 C         2.978277        -1.249666         0.274182
 O         2.450130        -0.653424        -0.868500
 C         1.563542         0.235007        -0.033880
 C         0.223889         0.149045        -0.509363
 C         2.408745         1.483911        -0.101115
 O         3.632100         1.240900         0.493816
 C         3.438522        -0.058754         1.177671
 C         1.999567        -0.555749         1.207398
 H         3.063055        -3.165973        -0.546911
 H         4.554478        -2.273448        -0.757448
 H         4.170722        -2.960267         0.847247
 H        -0.471952         0.360856         0.308791
 H        -0.168103         0.905424        -1.268405
 H         0.180093        -0.839517        -0.948457
 H         2.534944         1.958431        -1.076843
 H         1.945784         2.273939         0.473307
 H         4.194631        -0.185534         1.962441
 H         1.426305        -0.864927         2.077174
