19
Iteration:  4204
 C         3.783216        -2.579194         0.221936
 C         3.071315        -1.253749         0.182853
 O         2.465909        -0.721550        -1.058125
 C         1.549771         0.237517        -0.108373
 C         0.111429         0.313422        -0.465643
 C         2.290065         1.568973         0.078920
 O         3.580827         1.288781         0.590464
 C         3.518651        -0.107326         1.013612
 C         2.122719        -0.668709         1.088923
 H         3.062513        -3.339704        -0.216869
 H         4.471532        -2.608431        -0.566720
 H         4.211076        -2.866912         1.235690
 H        -0.156721         1.299090         0.070050
 H        -0.175529         0.419148        -1.506211
 H        -0.427632        -0.517806         0.038827
 H         2.430029         2.017627        -0.945053
 H         1.663076         2.252764         0.767472
 H         4.365974        -0.209833         1.697740
 H         1.495072        -1.061141         1.872261
