19
Iteration:   565charge 0 multiplicity 1
 C         3.577683        -2.715359         0.045726
 C         3.122428        -1.132431         0.146720
 O         2.198729        -0.737028        -0.815747
 C         1.574280         0.215063         0.179529
 C         0.016774        -0.195400         0.146531
 C         2.097675         1.596961        -0.061603
 O         3.619767         1.414502        -0.026699
 C         3.825505         0.152537         0.689092
 C         2.526109        -0.368993         1.310519
 H         4.426619        -3.122028         0.673084
 H         2.753935        -3.162332         0.534187
 H         3.812586        -3.047423        -1.015775
 H        -0.094182        -0.425637        -0.925665
 H        -0.063294        -1.230546         0.549745
 H        -0.808237         0.496967         0.410035
 H         1.893815         1.918490        -1.106942
 H         1.863528         2.322620         0.665411
 H         4.876796         0.017477         0.988336
 H         2.405922        -0.626543         2.329720
