19
Iteration:  4629
 C         3.579042        -2.573596         0.054887
 C         3.105417        -1.169843         0.081060
 O         2.591591        -0.549766        -1.193505
 C         1.666075         0.211586        -0.093525
 C         0.199222         0.072824        -0.466086
 C         2.247029         1.574121         0.189290
 O         3.589419         1.250202         0.717803
 C         3.460850        -0.101450         1.126575
 C         2.079494        -0.601451         1.118044
 H         2.749608        -3.308058         0.087054
 H         4.049916        -2.735899        -0.936122
 H         4.379669        -2.645816         0.861616
 H        -0.069500        -0.659524         0.288915
 H        -0.465408         1.044096        -0.423150
 H         0.074006        -0.239660        -1.535861
 H         2.047293         2.259044        -0.603685
 H         1.646553         1.936024         1.043841
 H         4.312397        -0.403328         1.829707
 H         1.394709        -0.799834         1.986132
