19
Iteration:  2100charge 0 multiplicity 1
 C         3.921238        -2.394436        -0.168394
 C         3.125318        -1.233035         0.125376
 O         2.454629        -0.542219        -0.953174
 C         1.523302         0.149037        -0.002192
 C         0.035611         0.204236        -0.378570
 C         2.213367         1.525793         0.235153
 O         3.608724         1.156735         0.551744
 C         3.476271        -0.143546         1.055017
 C         2.096212        -0.686826         1.074456
 H         4.105246        -2.873011         0.855747
 H         3.250462        -3.189017        -0.674895
 H         4.893420        -2.110530        -0.740157
 H        -0.573734         0.020883         0.532478
 H        -0.149393         1.232669        -0.747184
 H        -0.219693        -0.533435        -1.101401
 H         2.464086         2.108337        -0.698766
 H         1.733376         2.312648         0.891241
 H         4.166708        -0.302016         1.863675
 H         1.670645        -0.963276         2.065730
