19
Iteration:  3087
 C         3.871517        -2.506630        -0.098551
 C         3.110801        -1.280292         0.295616
 O         2.394098        -0.824570        -0.896689
 C         1.558905         0.130585        -0.058369
 C         0.145097         0.394878        -0.678077
 C         2.318520         1.518391        -0.033426
 O         3.539213         1.279228         0.657413
 C         3.488076        -0.083988         1.184332
 C         2.046284        -0.607260         1.248276
 H         3.189342        -3.268673        -0.274730
 H         4.481298        -2.469097        -0.973882
 H         4.505143        -2.825246         0.735603
 H         0.072001         1.485961        -0.999448
 H        -0.000800        -0.371634        -1.458277
 H        -0.673764         0.260158         0.097583
 H         2.497369         2.116877        -1.007074
 H         1.734674         2.302622         0.468451
 H         4.323482         0.044894         1.904765
 H         1.514404        -0.756535         2.145294
