19
Iteration:   310
 C         3.534883        -2.552091         0.069643
 C         3.196547        -1.141237         0.116785
 O         2.174737        -0.880009        -0.819516
 C         1.547688         0.113839         0.207988
 C         0.063077        -0.143299         0.164091
 C         2.075461         1.523288        -0.173681
 O         3.641305         1.424555         0.024481
 C         3.803656         0.202913         0.721905
 C         2.571334        -0.364006         1.289866
 H         3.861464        -2.999042         0.981529
 H         2.531470        -3.019771        -0.139209
 H         4.203439        -2.678855        -0.772353
 H        -0.359823         0.716371        -0.343332
 H        -0.101309        -0.993486        -0.490658
 H        -0.569896        -0.215758         0.999656
 H         1.836761         1.799716        -1.217111
 H         1.862588         2.383683         0.486980
 H         4.758516         0.045836         1.331472
 H         2.461304        -0.824667         2.226570
