19
Iteration:   725
 C         3.504331        -2.562335         0.036756
 C         3.145771        -1.063264         0.133921
 O         2.312226        -0.646572        -0.953271
 C         1.582120         0.145621         0.120671
 C         0.191667        -0.224231         0.289808
 C         2.185636         1.560443        -0.090489
 O         3.497223         1.233787        -0.078947
 C         3.725546         0.147993         0.783117
 C         2.413995        -0.343266         1.338439
 H         4.316104        -2.796020         0.696123
 H         2.635722        -3.183617         0.476141
 H         3.777019        -2.960903        -0.957483
 H        -0.315487        -0.350328        -0.669589
 H         0.144483        -1.292619         0.560215
 H        -0.254517         0.383440         1.048035
 H         2.028287         1.932713        -1.071903
 H         1.963034         2.287577         0.662050
 H         4.734394        -0.005392         1.232459
 H         2.079431        -0.734974         2.282950
