19
Iteration:  3912
 C         3.532977        -2.614334         0.230064
 C         3.113478        -1.160194         0.189302
 O         2.474530        -0.683663        -0.959368
 C         1.700777         0.143884        -0.083541
 C         0.187777         0.182227        -0.460477
 C         2.278117         1.525220        -0.008586
 O         3.632722         1.333341         0.414208
 C         3.549928        -0.007610         1.122304
 C         2.079742        -0.592678         1.115502
 H         2.716377        -3.081718        -0.331566
 H         4.449464        -2.735618        -0.263136
 H         3.592563        -3.176126         1.188901
 H        -0.000173        -0.653817        -1.190685
 H        -0.403070         0.044280         0.448353
 H        -0.262884         1.085638        -0.947734
 H         2.305727         2.047189        -0.958072
 H         1.767082         2.128157         0.795320
 H         4.356889        -0.120056         1.876859
 H         1.508919        -1.051694         1.958790
