19
Iteration:  3277charge 0 multiplicity 1
 C         3.887310        -2.584788         0.133111
 C         3.122803        -1.254572         0.191100
 O         2.580367        -0.624527        -1.041109
 C         1.533883         0.272743        -0.171749
 C         0.026213         0.304309        -0.398793
 C         2.343326         1.569237        -0.030763
 O         3.598633         1.220557         0.623864
 C         3.401077        -0.137577         1.148393
 C         1.978335        -0.682029         1.048637
 H         3.159108        -3.459452         0.305451
 H         4.405216        -2.668321        -0.765026
 H         4.561738        -2.549610         0.939589
 H        -0.301369         1.127267        -1.021606
 H        -0.279101        -0.788033        -0.642123
 H        -0.364461         0.606020         0.623188
 H         2.522345         2.004410        -1.026111
 H         1.673961         2.319197         0.433554
 H         3.959128        -0.225262         2.122876
 H         1.341035        -1.157166         1.776899
