19
Iteration:  2404
 C         3.542205        -2.571620        -0.321703
 C         3.301170        -1.208310         0.117447
 O         2.574717        -0.466170        -0.983865
 C         1.679810         0.094551        -0.018726
 C         0.219072         0.121310        -0.630127
 C         2.045366         1.522663         0.323104
 O         3.495729         1.301222         0.691680
 C         3.557697        -0.041739         1.206500
 C         2.170554        -0.658889         1.221118
 H         2.581770        -3.058105        -0.402929
 H         3.751492        -2.697514        -1.348296
 H         4.177787        -3.186200         0.305494
 H        -0.239252         1.128633        -0.618182
 H         0.280298        -0.305459        -1.630574
 H        -0.325239        -0.510694         0.064097
 H         1.948908         2.276967        -0.472168
 H         1.416920         1.915410         1.112448
 H         4.321639        -0.190780         2.000314
 H         1.829987        -1.224256         2.017339
