19
Iteration:  1174charge 0 multiplicity 1
 C         3.977239        -2.512279         0.162853
 C         3.096975        -1.256376         0.167376
 O         2.104566        -0.877578        -0.930708
 C         1.561963         0.135982         0.052737
 C         0.028514         0.126863         0.302622
 C         2.159831         1.530122        -0.243734
 O         3.602013         1.214369        -0.018229
 C         3.635695         0.120683         0.769280
 C         2.353623        -0.346928         1.259053
 H         5.080116        -2.373416         0.400190
 H         3.656920        -3.296541         0.774798
 H         4.017595        -2.860191        -0.885725
 H        -0.632688         0.234891        -0.611769
 H        -0.352148        -0.726844         0.893626
 H        -0.188203         1.019082         0.965614
 H         2.080336         1.839467        -1.266785
 H         1.788061         2.277263         0.496184
 H         4.468436         0.147115         1.577935
 H         2.051081        -0.639640         2.285513
