19
Iteration:  3160
 C         3.610942        -2.682799         0.070049
 C         3.214415        -1.195999         0.179659
 O         2.687901        -0.492465        -1.040193
 C         1.653941         0.201368        -0.258656
 C         0.094145         0.128963        -0.326486
 C         2.226251         1.554419         0.028147
 O         3.555746         1.262310         0.574650
 C         3.405947        -0.041334         1.198601
 C         2.032891        -0.655627         1.059969
 H         2.867482        -3.387505        -0.414378
 H         4.680436        -2.792970        -0.460136
 H         3.846430        -2.993715         1.118143
 H        -0.191919         0.553145        -1.271309
 H        -0.154106        -0.981745        -0.237104
 H        -0.333658         0.763738         0.399885
 H         2.500706         2.254296        -0.728722
 H         1.770410         2.268091         0.738039
 H         3.984150        -0.201687         2.154112
 H         1.329910        -0.906618         1.841277
