19
Iteration:  4171charge 0 multiplicity 1
 C         3.870191        -2.479046         0.093519
 C         3.067824        -1.221889         0.174766
 O         2.407400        -0.627917        -1.002556
 C         1.519526         0.183062        -0.071789
 C         0.115580         0.298610        -0.494078
 C         2.350105         1.433570         0.002612
 O         3.620969         1.156341         0.504748
 C         3.480278        -0.081920         1.150640
 C         2.039476        -0.571742         1.229730
 H         3.366619        -3.093353        -0.716719
 H         4.875762        -2.212850        -0.142694
 H         3.902898        -3.205101         0.992015
 H        -0.180496         1.393306        -0.255992
 H        -0.090366         0.024646        -1.492191
 H        -0.598508        -0.136330         0.246470
 H         2.470494         1.750461        -1.078239
 H         1.953693         2.326315         0.669099
 H         4.219502        -0.468715         1.848351
 H         1.361223        -0.969899         1.983677
