19
Iteration:  2731charge 0 multiplicity 1
 C         3.899192        -2.490316        -0.080265
 C         3.124874        -1.168178         0.069415
 O         2.323167        -0.599763        -0.987355
 C         1.576173         0.154457        -0.042000
 C         0.136249         0.239347        -0.518045
 C         2.262213         1.506077         0.051367
 O         3.589424         1.227348         0.816406
 C         3.484505        -0.144906         1.087426
 C         2.092753        -0.649018         1.161813
 H         3.307261        -3.388941        -0.321907
 H         4.574856        -2.482646        -0.897924
 H         4.615251        -2.565006         0.731105
 H        -0.445702         1.093942        -0.111012
 H         0.179989         0.377271        -1.613967
 H        -0.476526        -0.727195        -0.316108
 H         2.594611         1.907109        -0.865387
 H         1.551417         2.249858         0.544166
 H         4.168755        -0.148210         1.985829
 H         1.464105        -1.133057         1.969080
