19
Iteration:  1485charge 0 multiplicity 1
 C         3.534861        -2.620387         0.029288
 C         3.170107        -1.220765         0.191801
 O         2.245723        -0.763240        -0.855719
 C         1.575892         0.074283         0.110236
 C         0.112654        -0.071785         0.070390
 C         2.143604         1.470795        -0.103290
 O         3.512041         1.435801         0.090734
 C         3.795783         0.202826         0.758697
 C         2.499724        -0.370915         1.289795
 H         3.726134        -2.924655        -0.976548
 H         4.351650        -2.966888         0.684353
 H         2.644189        -3.101954         0.407106
 H        -0.245192        -0.220877         1.124370
 H        -0.200399         0.905872        -0.389907
 H        -0.135740        -0.946070        -0.550737
 H         1.837395         1.836717        -1.133087
 H         1.598727         2.185980         0.566258
 H         4.793361         0.145702         1.165085
 H         2.563073        -0.642308         2.281663
