19
Iteration:   603
 C         3.893794        -2.383443        -0.054075
 C         3.092852        -1.210789         0.235989
 O         2.133927        -0.850585        -0.880810
 C         1.536349         0.147753         0.102178
 C         0.053721         0.121666         0.310940
 C         2.180714         1.466369        -0.270781
 O         3.607966         1.243405        -0.004470
 C         3.696091         0.060470         0.869928
 C         2.345743        -0.414761         1.328513
 H         4.731059        -2.482707         0.645200
 H         3.271633        -3.354998        -0.152049
 H         4.263009        -2.279091        -1.081023
 H        -0.605033         0.161023        -0.590886
 H        -0.097153        -0.888416         0.734840
 H        -0.242105         0.784637         1.137827
 H         1.933706         1.540860        -1.334202
 H         1.764415         2.388121         0.258399
 H         4.707703        -0.226216         1.076856
 H         1.855403        -0.782671         2.298509
