19
Iteration:  2010
 C         3.722866        -2.517333        -0.139687
 C         3.167916        -1.139406         0.081969
 O         2.460103        -0.522360        -0.952391
 C         1.577924         0.213940        -0.042311
 C         0.130206        -0.044150        -0.230874
 C         2.247314         1.609771         0.113773
 O         3.603127         1.261035         0.494241
 C         3.514230        -0.108544         1.023590
 C         2.094187        -0.623048         1.215058
 H         3.099822        -2.928272        -1.017088
 H         4.713256        -2.698413        -0.547414
 H         3.475535        -3.186419         0.711933
 H         0.155656        -0.937540        -0.831586
 H        -0.411071        -0.156308         0.712165
 H        -0.360048         0.772582        -0.802733
 H         2.288519         2.223718        -0.819575
 H         1.725973         2.266903         0.861213
 H         4.296517        -0.221191         1.826081
 H         1.604349        -1.045217         2.092503
