19
Iteration:  2785
 C         3.592540        -2.616023        -0.026349
 C         3.154537        -1.210476         0.115461
 O         2.591874        -0.491867        -1.081985
 C         1.640102         0.174816        -0.101770
 C         0.134853         0.037008        -0.426749
 C         2.238446         1.544007         0.197864
 O         3.575336         1.317583         0.607191
 C         3.509441        -0.063980         1.193417
 C         2.119802        -0.596214         1.082870
 H         2.703343        -3.196464        -0.317568
 H         4.234608        -2.686300        -0.847375
 H         4.000793        -3.113138         0.836223
 H        -0.452946        -0.510777         0.342161
 H        -0.325343         1.004588        -0.599381
 H         0.094319        -0.651876        -1.353989
 H         2.233299         2.179342        -0.667970
 H         1.524945         2.080668         0.924918
 H         4.179266        -0.022019         2.046692
 H         1.519298        -0.920978         1.928419
