19
Iteration:  2968charge 0 multiplicity 1
 C         3.508234        -2.710746        -0.106348
 C         3.206124        -1.187204         0.280490
 O         2.594754        -0.526116        -0.915946
 C         1.546767         0.167946        -0.098021
 C         0.181883         0.103321        -0.565311
 C         2.187117         1.475396         0.100616
 O         3.564088         1.275261         0.508881
 C         3.541385         0.034212         1.176501
 C         2.180021        -0.577298         1.271519
 H         2.547474        -3.158004        -0.621286
 H         4.352022        -2.676981        -0.820601
 H         3.968292        -3.220769         0.807100
 H         0.173864        -0.109569        -1.642970
 H        -0.553176        -0.438677        -0.032098
 H        -0.129256         1.162843        -0.647805
 H         2.343518         1.990675        -0.944972
 H         1.660699         2.270644         0.661330
 H         4.243510        -0.111465         1.977494
 H         1.692548        -0.765012         2.186470
