19
Iteration:  4853
 C         3.632549        -2.552663        -0.131185
 C         3.140286        -1.150594         0.075127
 O         2.610383        -0.440678        -1.068145
 C         1.608341         0.205877        -0.104923
 C         0.137948         0.027049        -0.495052
 C         2.192926         1.570972         0.307873
 O         3.589757         1.281890         0.729973
 C         3.519493        -0.149509         1.158551
 C         2.072260        -0.692193         1.031157
 H         2.889951        -3.290266        -0.231873
 H         4.139242        -2.477502        -1.104819
 H         4.332523        -2.886448         0.679135
 H        -0.071859        -0.853279        -1.102764
 H        -0.423263        -0.176627         0.321389
 H        -0.096999         1.014533        -0.901113
 H         2.309342         2.329332        -0.473942
 H         1.603660         1.834943         1.196818
 H         4.008694        -0.318179         2.160076
 H         1.521409        -1.137896         1.882682
