19
Iteration:  1989charge 0 multiplicity 1
 C         3.885906        -2.486766        -0.134872
 C         3.033733        -1.284054         0.146378
 O         2.364721        -0.559606        -1.029135
 C         1.477308         0.201811         0.005212
 C        -0.017551         0.070250        -0.303626
 C         2.289506         1.544524         0.161805
 O         3.635754         1.210754         0.456847
 C         3.630793        -0.065098         1.099236
 C         2.192690        -0.548991         1.137194
 H         3.987974        -2.924270        -1.188048
 H         4.903317        -2.237777         0.179813
 H         3.483226        -3.276297         0.543889
 H        -0.225496        -0.713818        -0.998539
 H        -0.512274        -0.137086         0.647826
 H        -0.509960         1.022453        -0.526092
 H         2.242368         2.208925        -0.725659
 H         1.825598         2.052604         0.997264
 H         4.310832        -0.082416         1.997199
 H         1.629308        -0.915100         1.999439
