19
Iteration:   236
 C         4.065594        -2.307698        -0.066708
 C         3.082774        -1.283746         0.190393
 O         2.063555        -0.943745        -0.808422
 C         1.523663         0.114453         0.071416
 C         0.023910         0.327064         0.231496
 C         2.155484         1.452011        -0.245438
 O         3.573440         1.174861         0.051613
 C         3.660986         0.016285         0.828172
 C         2.369200        -0.486446         1.311672
 H         4.882432        -2.134844         0.582947
 H         3.702702        -3.317078         0.058662
 H         4.376691        -2.015867        -1.139603
 H        -0.653965         0.536098        -0.669130
 H        -0.559620        -0.490109         0.699209
 H        -0.065848         1.195370         0.925445
 H         2.239355         1.828250        -1.281951
 H         1.717720         2.203711         0.415865
 H         4.573641        -0.081580         1.517668
 H         2.053378        -0.828785         2.248429
