19
Iteration:    63
 C         4.003604        -2.354114        -0.157603
 C         3.195237        -1.184052         0.229366
 O         2.081894        -0.971697        -0.754569
 C         1.525556         0.081755         0.118768
 C         0.030979         0.342879         0.137101
 C         2.175858         1.321780        -0.332085
 O         3.540381         1.239657         0.128939
 C         3.683719         0.051153         0.963101
 C         2.337293        -0.407824         1.355067
 H         4.879697        -2.613999         0.370794
 H         3.252661        -3.115845        -0.298294
 H         4.309697        -2.248319        -1.304298
 H        -0.103699         1.437366        -0.158723
 H        -0.502533        -0.163417        -0.695841
 H        -0.454069        -0.117892         1.008722
 H         2.181477         1.312863        -1.459104
 H         1.676293         2.210180         0.127988
 H         4.570059        -0.018155         1.529493
 H         1.848862        -0.606657         2.241391
