19
Iteration:  4651
 C         3.541412        -2.604354        -0.107643
 C         3.131874        -1.200507         0.154041
 O         2.538836        -0.470585        -0.917055
 C         1.626991         0.216195        -0.065698
 C         0.144213        -0.014791        -0.553449
 C         2.292337         1.617106         0.137689
 O         3.550136         1.277375         0.678199
 C         3.560386        -0.104131         1.175042
 C         2.153170        -0.591303         1.074930
 H         2.684620        -3.296868        -0.071710
 H         3.988622        -2.787052        -1.099070
 H         4.266224        -2.786385         0.706622
 H        -0.436280        -0.413107         0.289941
 H        -0.334914         0.964814        -0.995979
 H         0.146573        -0.673131        -1.444359
 H         2.444595         2.102834        -0.838916
 H         1.642293         2.302592         0.740985
 H         4.213600        -0.318896         2.074888
 H         1.615312        -1.216130         1.804100
