19
Iteration:  2787
 C         3.588522        -2.615389        -0.031336
 C         3.149897        -1.204590         0.107229
 O         2.597995        -0.490698        -1.070227
 C         1.652659         0.188847        -0.101294
 C         0.116176         0.017369        -0.429758
 C         2.247063         1.560118         0.206078
 O         3.579121         1.313192         0.593817
 C         3.528142        -0.060509         1.194570
 C         2.099478        -0.612248         1.094441
 H         2.709441        -3.190886        -0.305433
 H         4.267687        -2.644367        -0.862314
 H         3.967148        -3.106249         0.882863
 H        -0.441411        -0.541718         0.357385
 H        -0.355574         0.960433        -0.597400
 H         0.050765        -0.616737        -1.392427
 H         2.298542         2.165077        -0.685063
 H         1.523510         2.061804         0.926138
 H         4.138880        -0.018090         2.068203
 H         1.488092        -0.908221         1.864010
