19
Iteration:   816charge 0 multiplicity 1
 C         3.988080        -2.375435        -0.079241
 C         3.073182        -1.239483         0.249329
 O         2.179819        -0.856751        -0.831283
 C         1.483802         0.125661         0.139162
 C        -0.048525         0.230233         0.326106
 C         2.137338         1.443508        -0.312527
 O         3.652547         1.178451        -0.041487
 C         3.710479         0.059991         0.817397
 C         2.286929        -0.464843         1.366043
 H         4.729089        -2.511866         0.794103
 H         3.445492        -3.207536        -0.389178
 H         4.530040        -2.126777        -1.034699
 H        -0.528972         0.624549        -0.564477
 H        -0.592611        -0.738677         0.318177
 H        -0.090042         0.811161         1.286524
 H         2.067906         1.648042        -1.399753
 H         1.812086         2.307116         0.214282
 H         4.653041        -0.108128         1.300937
 H         2.122170        -0.617493         2.464676
