19
Iteration:  1574
 C         4.009942        -2.442944        -0.126008
 C         3.168813        -1.208457         0.105779
 O         2.108660        -0.862803        -0.856469
 C         1.487936         0.064454         0.099910
 C        -0.026574         0.256772         0.043061
 C         2.158969         1.427561        -0.094006
 O         3.625771         1.342803         0.204351
 C         3.655328         0.017239         0.898789
 C         2.366355        -0.504048         1.271093
 H         3.400777        -3.206257         0.433409
 H         4.223466        -2.819916        -1.137305
 H         4.854505        -2.332772         0.535433
 H        -0.403828         1.238659        -0.384197
 H        -0.570714        -0.520007        -0.546858
 H        -0.384865         0.197413         1.134145
 H         2.010496         1.611975        -1.171670
 H         1.771536         2.286382         0.494257
 H         4.588031        -0.113231         1.530929
 H         1.955437        -0.760122         2.265949
