19
Iteration:  2894
 C         3.905157        -2.463796         0.128521
 C         3.090509        -1.244035         0.195938
 O         2.419249        -0.635219        -1.069347
 C         1.590169         0.133188        -0.096699
 C         0.141470         0.392551        -0.365511
 C         2.318244         1.530205        -0.059540
 O         3.542298         1.179552         0.660423
 C         3.468008        -0.100315         1.084162
 C         2.007605        -0.755661         1.074136
 H         3.132050        -3.230535        -0.111126
 H         4.534471        -2.446345        -0.700745
 H         4.541727        -2.401739         1.034735
 H        -0.234862        -0.241333        -1.200533
 H        -0.373175        -0.068953         0.422119
 H        -0.239675         1.470277        -0.411899
 H         2.489821         1.834664        -1.044067
 H         1.854297         2.376576         0.482141
 H         4.240819        -0.115115         1.832635
 H         1.464420        -1.205220         1.821934
