19
Iteration:  2059charge 0 multiplicity 1
 C         3.551155        -2.600824        -0.126908
 C         3.195829        -1.144729        -0.013105
 O         2.433536        -0.604292        -0.955957
 C         1.651005         0.142262         0.002104
 C         0.105118        -0.017688        -0.397225
 C         2.245758         1.609015         0.192214
 O         3.503911         1.388235         0.723180
 C         3.601129         0.020016         1.026150
 C         2.296641        -0.661594         1.090582
 H         2.993174        -3.451089         0.254084
 H         3.469011        -2.836605        -1.242351
 H         4.626588        -2.722376         0.181725
 H        -0.337844        -0.877221         0.146355
 H        -0.342316         0.959172        -0.135652
 H        -0.056066        -0.113001        -1.470130
 H         2.149202         2.070262        -0.780787
 H         1.725667         2.250016         0.875475
 H         4.315588        -0.357246         1.785266
 H         1.754283        -1.017120         1.945765
