19
Iteration:  1333charge 0 multiplicity 1
 C         3.770461        -2.568823         0.146906
 C         3.109407        -1.109663         0.149712
 O         2.101253        -0.909253        -0.850812
 C         1.524880         0.173232         0.162552
 C         0.030055        -0.042345         0.201465
 C         2.182506         1.524246        -0.232974
 O         3.594960         1.349595        -0.004800
 C         3.785867         0.146989         0.677725
 C         2.480869        -0.373277         1.290483
 H         4.138162        -2.698602         1.207079
 H         2.778003        -3.182382         0.053388
 H         4.551458        -2.713375        -0.600117
 H        -0.483138         0.380125        -0.719754
 H        -0.157297        -1.179475         0.075984
 H        -0.315395         0.247733         1.204814
 H         2.091559         1.763709        -1.334820
 H         1.876712         2.391065         0.382602
 H         4.633576        -0.126502         1.333707
 H         2.183854        -0.336329         2.430888
