19
Iteration:  3131
 C         3.689638        -2.522674         0.141765
 C         3.113355        -1.141499         0.102275
 O         2.516281        -0.601093        -1.032186
 C         1.600441         0.221899        -0.107550
 C         0.124562         0.152219        -0.492025
 C         2.277236         1.549873         0.021991
 O         3.581935         1.222516         0.664593
 C         3.475331        -0.145547         1.092892
 C         2.081378        -0.629754         1.163052
 H         3.009082        -3.285340        -0.086354
 H         4.478391        -2.624104        -0.610949
 H         4.185492        -2.551887         1.134252
 H        -0.016812         1.004930        -1.265161
 H         0.052252        -0.765024        -1.092774
 H        -0.608361         0.203938         0.388944
 H         2.538087         2.126605        -0.949977
 H         1.796338         2.337005         0.630014
 H         4.197726        -0.524247         1.853604
 H         1.505572        -1.082475         1.927576
