19
Iteration:   401charge 0 multiplicity 1
 C         3.881197        -2.449121        -0.056076
 C         3.057359        -1.217962         0.154420
 O         2.099286        -0.947004        -0.819807
 C         1.510654         0.145813         0.187394
 C        -0.052109         0.130010         0.123048
 C         2.239791         1.476285        -0.155165
 O         3.612923         1.353302         0.138915
 C         3.737878         0.099017         0.728533
 C         2.457363        -0.437029         1.275588
 H         4.648292        -2.611324         0.719146
 H         3.296701        -3.311226         0.183371
 H         4.380661        -2.458229        -1.086272
 H        -0.472411         0.028749        -0.902191
 H        -0.382009        -0.757657         0.685699
 H        -0.426403         1.077578         0.562703
 H         1.978364         1.635683        -1.222580
 H         1.774953         2.339078         0.440959
 H         4.653551        -0.005297         1.216059
 H         2.210460        -0.811126         2.309413
