19
Iteration:   408
 C         3.916565        -2.448785        -0.080290
 C         3.084799        -1.245618         0.186615
 O         2.095230        -0.933773        -0.756063
 C         1.518866         0.122111         0.160839
 C         0.013284         0.194150         0.119555
 C         2.222370         1.466742        -0.210225
 O         3.545550         1.352879         0.139167
 C         3.713697         0.097886         0.704503
 C         2.436773        -0.483602         1.347972
 H         4.682992        -2.492017         0.676601
 H         3.294874        -3.466280        -0.121727
 H         4.347939        -2.272034        -1.105889
 H        -0.373027         0.201123        -0.911416
 H        -0.483637        -0.571550         0.705714
 H        -0.423718         1.125199         0.480207
 H         2.193624         1.715619        -1.297910
 H         1.633767         2.237525         0.333014
 H         4.771079        -0.144897         1.145239
 H         2.267684        -0.883907         2.329516
