19
Iteration:  4745charge 0 multiplicity 1
 C         3.912766        -2.366867         0.088212
 C         3.063714        -1.216403         0.030750
 O         2.440414        -0.489799        -1.093572
 C         1.586717         0.172211        -0.099385
 C         0.108722         0.357489        -0.394673
 C         2.230418         1.514433         0.146105
 O         3.540580         1.096186         0.634714
 C         3.439296        -0.247471         1.113039
 C         2.118190        -0.772115         1.082495
 H         3.546133        -3.200913        -0.490642
 H         4.996861        -2.176802        -0.243232
 H         3.976172        -2.577497         1.211509
 H        -0.127535         1.425239        -0.716982
 H        -0.186646        -0.340995        -1.120785
 H        -0.561995         0.086151         0.501389
 H         2.340989         2.065783        -0.811745
 H         1.851944         2.220982         0.838821
 H         4.302295        -0.492776         1.793480
 H         1.693904        -1.415830         1.890022
