19
Iteration:  3684
 C         3.623210        -2.648424         0.131292
 C         3.110014        -1.266897         0.110767
 O         2.474717        -0.611598        -1.007975
 C         1.599046         0.222364        -0.016230
 C         0.142220         0.174824        -0.533799
 C         2.250149         1.570095         0.079480
 O         3.539519         1.293406         0.610687
 C         3.593466        -0.099662         1.030549
 C         2.137595        -0.537960         1.156879
 H         2.798533        -3.325979        -0.034093
 H         4.340127        -2.855495        -0.698764
 H         4.182245        -2.814099         1.111748
 H        -0.140668         1.161391        -0.965899
 H         0.333793        -0.521660        -1.256483
 H        -0.574377        -0.145238         0.194522
 H         2.455085         1.958216        -0.849092
 H         1.763574         2.249842         0.807315
 H         4.510015        -0.183667         1.590738
 H         1.685256        -0.806205         2.065147
