19
Iteration:  1492
 C         3.504383        -2.612153         0.015644
 C         3.180793        -1.165333         0.178631
 O         2.270928        -0.775470        -0.847566
 C         1.522054         0.157834         0.070685
 C         0.093794        -0.085180         0.088871
 C         2.107206         1.454860        -0.145151
 O         3.561333         1.444131         0.066201
 C         3.792817         0.181501         0.781513
 C         2.530482        -0.436733         1.359362
 H         3.532779        -2.936790        -1.039002
 H         4.536974        -2.833138         0.519617
 H         2.834211        -3.352505         0.589002
 H        -0.349313        -0.081765         1.084637
 H        -0.372170         0.638542        -0.611670
 H        -0.011645        -1.013106        -0.457459
 H         1.918008         2.019822        -1.060143
 H         1.756074         2.109762         0.666799
 H         4.760248         0.191601         1.242247
 H         2.350161        -0.775329         2.473080
