19
Iteration:  2497charge 0 multiplicity 1
 C         4.037353        -2.436969        -0.152596
 C         3.153193        -1.219523         0.093354
 O         2.444325        -0.562048        -1.059705
 C         1.542756         0.108498        -0.134994
 C         0.062810         0.436022        -0.350728
 C         2.235597         1.458309         0.163413
 O         3.455680         1.190414         0.731570
 C         3.493458        -0.159580         1.213874
 C         2.092553        -0.763569         1.062862
 H         3.549677        -3.120280        -0.861827
 H         5.006939        -2.194183        -0.599394
 H         4.226248        -2.841187         0.845169
 H        -0.603163         0.028174         0.449878
 H        -0.139721         1.517998        -0.572766
 H        -0.245167        -0.204844        -1.267177
 H         2.493350         1.871093        -0.830787
 H         1.536173         2.160916         0.581695
 H         4.052765        -0.542368         2.155809
 H         1.359064        -1.215341         1.726536
