19
Iteration:  2825charge 0 multiplicity 1
 C         3.652593        -2.543130        -0.065682
 C         3.020674        -1.130585         0.147091
 O         2.439946        -0.471520        -1.027615
 C         1.616953         0.248496         0.019679
 C         0.205939        -0.051549        -0.529878
 C         2.306886         1.519706         0.124424
 O         3.616953         1.203335         0.573816
 C         3.531625        -0.074094         1.137395
 C         2.105833        -0.561023         1.232090
 H         3.055682        -3.213981        -0.772435
 H         4.743293        -2.504046        -0.472569
 H         3.833413        -2.979749         0.925137
 H        -0.045038        -1.098704        -0.454458
 H        -0.598082         0.566411        -0.018433
 H         0.217401         0.174643        -1.557339
 H         2.429170         1.998358        -0.897210
 H         1.873433         2.257161         0.763442
 H         4.054771        -0.502003         2.011984
 H         1.293420        -0.697074         2.068773
