19
Iteration:  2390charge 0 multiplicity 1
 C         3.589858        -2.628347        -0.315314
 C         3.275938        -1.101804         0.088021
 O         2.605583        -0.497876        -0.936975
 C         1.596430         0.143203        -0.065852
 C         0.227425         0.152827        -0.549964
 C         2.130976         1.487180         0.337701
 O         3.457544         1.327932         0.679462
 C         3.503318        -0.106425         1.156793
 C         2.180846        -0.716469         1.155835
 H         2.693285        -3.306133         0.000921
 H         4.003357        -2.500581        -1.318699
 H         4.464144        -3.037425         0.248865
 H        -0.014391         1.186780        -0.779354
 H         0.015141        -0.399031        -1.462353
 H        -0.551009        -0.269902        -0.004172
 H         2.118709         2.187878        -0.465507
 H         1.551241         1.816861         1.294936
 H         4.235240        -0.254554         2.048732
 H         1.476845        -0.865307         1.990935
