19
Iteration:  2062
 C         3.579661        -2.585143        -0.119836
 C         3.168858        -1.185112        -0.008643
 O         2.422467        -0.603879        -0.973979
 C         1.626280         0.135712        -0.012907
 C         0.131958         0.005423        -0.384158
 C         2.223849         1.608849         0.212889
 O         3.527010         1.382179         0.714891
 C         3.592919         0.023728         1.037606
 C         2.296037        -0.668358         1.087168
 H         3.105275        -3.406140         0.345802
 H         3.431114        -2.730456        -1.187886
 H         4.598222        -2.701114         0.067473
 H        -0.355788        -0.800938         0.175124
 H        -0.342195         0.986535        -0.243101
 H        -0.001501        -0.174204        -1.503106
 H         2.215250         2.017775        -0.806966
 H         1.650291         2.267272         0.922194
 H         4.365151        -0.302565         1.813930
 H         1.763128        -1.026450         1.937477
