19
Iteration:  2464
 C         3.830956        -2.433340        -0.150521
 C         3.031877        -1.175771         0.041312
 O         2.498713        -0.482508        -1.082651
 C         1.641195         0.214317        -0.075778
 C         0.103466         0.095620        -0.388242
 C         2.324818         1.609851         0.219772
 O         3.566616         1.213641         0.772329
 C         3.458992        -0.211868         1.159720
 C         2.032815        -0.699457         1.010777
 H         3.337599        -3.176399        -0.829364
 H         4.871422        -2.133438        -0.406876
 H         3.903456        -2.850893         0.877961
 H        -0.498793         0.081056         0.564181
 H        -0.509797         0.571671        -1.199058
 H         0.020825        -1.056594        -0.617312
 H         2.547404         2.118256        -0.745060
 H         1.652734         2.170825         0.888387
 H         4.248790        -0.515375         1.952535
 H         1.345245        -1.096341         1.790145
