19
Iteration:    50
 C         3.953376        -2.266511        -0.157364
 C         3.102666        -1.128784         0.247375
 O         2.065782        -1.008790        -0.742194
 C         1.474185         0.092246         0.129556
 C        -0.056410         0.255737         0.131752
 C         2.321637         1.326884        -0.335478
 O         3.685026         1.209660         0.123888
 C         3.689006         0.080484         0.886662
 C         2.280904        -0.414044         1.336245
 H         4.887653        -2.335924         0.466391
 H         3.531515        -3.303962        -0.134225
 H         4.254347        -1.866491        -1.186057
 H        -0.451472         1.308443         0.262374
 H        -0.450072        -0.282081        -0.773321
 H        -0.478959        -0.131618         1.102978
 H         2.256081         1.422349        -1.446753
 H         1.887074         2.280809         0.094994
 H         4.488535        -0.001167         1.584566
 H         1.920405        -1.074590         2.168256
