19
Iteration:  3524
 C         3.610653        -2.629129         0.153950
 C         3.104566        -1.217709         0.176362
 O         2.462916        -0.509884        -1.023425
 C         1.595421         0.146215        -0.114371
 C         0.063711         0.102354        -0.585963
 C         2.275437         1.548029         0.205358
 O         3.722782         1.269923         0.513121
 C         3.562871        -0.025678         1.145959
 C         2.093144        -0.585597         1.119188
 H         2.862984        -3.280518        -0.372532
 H         4.418322        -2.594397        -0.615719
 H         3.778246        -2.783452         1.206048
 H         0.042080         0.499463        -1.635076
 H        -0.363296        -0.923137        -0.632027
 H        -0.533965         0.733175         0.134760
 H         2.316121         2.239634        -0.721817
 H         1.644198         1.972395         0.996686
 H         4.379479        -0.249577         1.812796
 H         1.873942        -1.234355         1.899296
