19
Iteration:  3608
 C         3.816309        -2.403815         0.005902
 C         2.962084        -1.238782         0.166335
 O         2.434219        -0.652574        -0.954216
 C         1.641332         0.251135        -0.033685
 C         0.132127         0.164877        -0.458490
 C         2.435706         1.534395        -0.069894
 O         3.631825         1.188412         0.657998
 C         3.436999        -0.155909         1.068489
 C         1.947637        -0.572765         1.202296
 H         3.149766        -3.113887        -0.342220
 H         4.630048        -2.194089        -0.749068
 H         4.343103        -2.864113         0.877285
 H        -0.003903        -0.048017        -1.561247
 H        -0.222013        -0.635381         0.121203
 H        -0.470607         1.051497        -0.197102
 H         2.719325         1.801081        -1.066195
 H         1.819715         2.359827         0.417409
 H         4.225525        -0.343115         1.792666
 H         1.335313        -0.943350         1.997373
