19
Iteration:   432charge 0 multiplicity 1
 C         4.044605        -2.381688        -0.234494
 C         3.126513        -1.267588         0.202090
 O         2.049909        -0.981888        -0.734638
 C         1.521875         0.102293         0.272072
 C         0.070602         0.360615         0.117767
 C         2.167157         1.336599        -0.308208
 O         3.513064         1.265902         0.118303
 C         3.680467         0.107621         0.872591
 C         2.407080        -0.447175         1.346383
 H         4.633750        -2.712674         0.620082
 H         3.282581        -3.214240        -0.524629
 H         4.675604        -2.145999        -1.206122
 H        -0.232800         0.592347        -0.921190
 H        -0.595866        -0.371182         0.571067
 H        -0.253457         1.265764         0.672458
 H         1.962540         1.128334        -1.391352
 H         1.692221         2.335658        -0.026706
 H         4.520369         0.026335         1.533493
 H         2.127735        -0.595688         2.429851
