19
Iteration:  2206
 C         3.649861        -2.530536        -0.214059
 C         3.206596        -1.151248         0.015972
 O         2.606807        -0.390277        -1.061012
 C         1.579569         0.145724        -0.089583
 C         0.140276         0.024747        -0.398109
 C         2.158116         1.596623         0.255078
 O         3.517913         1.251620         0.844794
 C         3.583557        -0.101881         1.111639
 C         2.062091        -0.748499         1.056483
 H         4.292947        -2.585379        -1.103924
 H         4.172012        -2.891839         0.616010
 H         2.851709        -3.183266        -0.441911
 H        -0.200842         0.963221        -0.890612
 H        -0.049641        -0.865620        -1.060768
 H        -0.364954        -0.120393         0.571478
 H         2.411738         2.229649        -0.589541
 H         1.606536         2.081932         1.039914
 H         4.350679        -0.228532         1.852024
 H         1.430910        -1.394618         1.737875
