19
Iteration:  1773charge 0 multiplicity 1
 C         3.935017        -2.311928        -0.171167
 C         3.021182        -1.181222         0.107070
 O         2.251702        -0.696473        -0.992539
 C         1.530709         0.177904         0.014391
 C         0.055278         0.065400        -0.011986
 C         2.341850         1.473790        -0.075568
 O         3.580388         1.179848         0.406453
 C         3.561391        -0.039668         1.051460
 C         2.195564        -0.579194         1.240345
 H         3.384382        -3.082368        -0.742396
 H         4.708968        -1.838501        -0.741664
 H         4.412793        -2.736935         0.732135
 H        -0.369318        -0.639713         0.710741
 H        -0.166472         1.082600         0.461044
 H        -0.576892         0.046574        -0.917751
 H         2.496046         1.851530        -1.079631
 H         1.925393         2.293256         0.488365
 H         4.461598        -0.323036         1.648255
 H         1.760408        -1.059373         2.072035
