19
Iteration:  1886charge 0 multiplicity 1
 C         3.672828        -2.530920        -0.102686
 C         3.097483        -1.164422         0.168747
 O         2.381302        -0.484632        -1.034752
 C         1.612055         0.193578        -0.030864
 C         0.063388        -0.151960        -0.132597
 C         2.265796         1.616729         0.083844
 O         3.641042         1.305717         0.479623
 C         3.596683        -0.039645         0.973999
 C         2.197209        -0.626212         1.174767
 H         4.626389        -2.617279         0.357824
 H         3.081796        -3.449377         0.153911
 H         3.836718        -2.676508        -1.189439
 H        -0.157161        -1.267188        -0.110185
 H        -0.320117         0.323851         0.808067
 H        -0.382042         0.340404        -1.032194
 H         2.397860         1.902349        -0.955435
 H         1.702000         2.406967         0.594280
 H         4.336878        -0.281510         1.685045
 H         1.509817        -0.778894         2.058256
