19
Iteration:  3388charge 0 multiplicity 1
 C         3.726982        -2.479172         0.097817
 C         3.095545        -1.193253         0.147655
 O         2.413351        -0.546173        -0.998437
 C         1.571515         0.225704        -0.077495
 C         0.105401         0.115978        -0.566448
 C         2.327799         1.497753         0.137266
 O         3.719622         1.185735         0.553382
 C         3.444581        -0.104966         1.160843
 C         2.080868        -0.555798         1.087235
 H         3.203044        -3.145450        -0.558204
 H         4.719365        -2.479884        -0.298299
 H         3.824718        -2.883051         1.090447
 H        -0.078466        -0.058555        -1.646208
 H        -0.261115        -0.822899        -0.014765
 H        -0.546059         0.877789        -0.137964
 H         2.435770         2.083830        -0.720965
 H         1.776723         2.092050         0.853463
 H         4.107740        -0.194520         2.006517
 H         1.514583        -1.176759         1.816481
