19
Iteration:  3210
 C         3.760802        -2.577558        -0.012106
 C         3.087660        -1.161910         0.114554
 O         2.322053        -0.640482        -0.930428
 C         1.510886         0.246398         0.055940
 C         0.189420         0.076905        -0.726958
 C         2.299661         1.577722         0.045085
 O         3.587240         1.294476         0.695306
 C         3.562616        -0.086640         1.111672
 C         2.161052        -0.579810         1.231287
 H         2.978439        -3.194210        -0.524995
 H         4.712837        -2.674495        -0.386274
 H         3.704255        -3.089617         0.944639
 H         0.419323         0.204706        -1.817022
 H        -0.193544        -0.919679        -0.479495
 H        -0.537466         0.932167        -0.426308
 H         2.414766         1.940611        -1.048991
 H         2.152221         2.460788         0.721174
 H         4.228471        -0.434994         1.872962
 H         1.753081        -1.029079         2.197193
