19
Iteration:  2954
 C         3.584704        -2.563631        -0.090357
 C         3.064534        -1.250349         0.258928
 O         2.554156        -0.613863        -0.895464
 C         1.663443         0.140595         0.012399
 C         0.182760         0.133417        -0.593244
 C         2.246309         1.609074         0.028877
 O         3.572578         1.263526         0.517085
 C         3.557193        -0.026261         1.162731
 C         2.112985        -0.580057         1.228078
 H         2.731345        -3.101773        -0.346051
 H         4.198190        -2.433429        -1.024007
 H         4.009977        -3.171750         0.652437
 H         0.225649        -0.409274        -1.543159
 H        -0.492313        -0.487464         0.136666
 H        -0.321322         1.087695        -0.738369
 H         2.229435         2.148034        -0.992638
 H         1.693894         2.166706         0.836058
 H         4.199483        -0.026741         2.029473
 H         1.615120        -1.121978         2.076933
