19
Iteration:   228charge 0 multiplicity 1
 C         4.049165        -2.395460        -0.092529
 C         3.077761        -1.268145         0.251026
 O         2.079192        -0.954415        -0.820418
 C         1.504566         0.152856         0.149688
 C         0.002828         0.279661         0.207012
 C         2.220947         1.499999        -0.240873
 O         3.545362         1.255644         0.072512
 C         3.648749        -0.015888         0.769808
 C         2.348486        -0.464452         1.335026
 H         4.998488        -2.276607         0.500416
 H         3.772401        -3.441480        -0.146187
 H         4.359375        -2.188708        -1.185630
 H        -0.276454         0.304256        -0.911567
 H        -0.460522        -0.552239         0.801037
 H        -0.145549         1.266508         0.768252
 H         2.007379         1.647818        -1.335626
 H         1.876818         2.400215         0.357979
 H         4.599989         0.096730         1.367517
 H         2.078892        -0.957670         2.307056
