19
Iteration:  2683charge 0 multiplicity 1
 C         3.994630        -2.384845        -0.190367
 C         3.071229        -1.184938         0.236376
 O         2.482010        -0.537965        -0.932351
 C         1.613193         0.199042        -0.090402
 C         0.020798         0.218945        -0.443762
 C         2.332557         1.478107         0.101185
 O         3.619362         1.087743         0.589883
 C         3.390840        -0.157511         1.241029
 C         1.929709        -0.646552         1.085506
 H         3.562799        -3.033497        -0.908576
 H         4.943325        -2.068375        -0.644241
 H         4.343604        -2.960883         0.655970
 H        -0.262903         1.232731        -0.800149
 H        -0.397133        -0.481019        -1.256840
 H        -0.534976         0.087285         0.437797
 H         2.402448         1.950426        -0.955892
 H         1.764761         2.185560         0.783120
 H         3.998843        -0.432543         2.054763
 H         1.373995        -0.952652         1.959872
