19
Iteration:  4848
 C         3.639506        -2.573370        -0.138943
 C         3.149580        -1.167071         0.091993
 O         2.605932        -0.408870        -1.023884
 C         1.632085         0.215624        -0.093305
 C         0.115069         0.012308        -0.519562
 C         2.151573         1.552973         0.285518
 O         3.610379         1.280522         0.726281
 C         3.529304        -0.148405         1.178054
 C         2.090209        -0.642480         1.024157
 H         2.729486        -3.287725        -0.170124
 H         4.091666        -2.385940        -1.127015
 H         4.338595        -3.046087         0.533832
 H         0.098548        -0.846607        -1.217092
 H        -0.594596        -0.297312         0.407164
 H        -0.261083         0.989561        -0.872520
 H         2.379675         2.251832        -0.536275
 H         1.554757         1.949645         1.154222
 H         4.102523        -0.499251         2.026655
 H         1.474470        -1.161156         1.745282
