19
Iteration:  2729
 C         3.915406        -2.466666        -0.089636
 C         3.117887        -1.181143         0.080704
 O         2.318376        -0.594420        -0.977052
 C         1.566610         0.150551        -0.058879
 C         0.149176         0.232900        -0.503912
 C         2.278330         1.503771         0.053593
 O         3.581148         1.229512         0.802353
 C         3.473578        -0.175447         1.100747
 C         2.088158        -0.632592         1.152967
 H         3.308714        -3.347686        -0.327297
 H         4.600159        -2.464301        -0.896780
 H         4.594538        -2.549132         0.714724
 H        -0.389490         1.119613        -0.106719
 H         0.159289         0.288548        -1.659100
 H        -0.440860        -0.675118        -0.269336
 H         2.624657         1.910052        -0.899002
 H         1.579414         2.251606         0.591456
 H         4.168347        -0.183537         1.971927
 H         1.379556        -1.094352         1.973550
