19
Iteration:    22charge 0 multiplicity 1
 C         4.007903        -2.456574        -0.010935
 C         3.009694        -1.264617         0.164885
 O         1.992371        -0.845867        -0.798996
 C         1.541863         0.271084         0.155481
 C         0.038839         0.052471         0.148307
 C         2.285995         1.525489        -0.306872
 O         3.643695         1.241910         0.127609
 C         3.667986        -0.052892         0.777850
 C         2.331140        -0.321592         1.343790
 H         4.800786        -2.325755         0.705597
 H         3.591651        -3.441979         0.040898
 H         4.420395        -2.312682        -1.032630
 H        -0.584467         0.896139         0.479918
 H        -0.332168        -0.165236        -0.840685
 H        -0.226249        -0.813120         0.759741
 H         2.196058         1.565593        -1.396048
 H         1.897824         2.431067         0.138988
 H         4.561176        -0.223166         1.369425
 H         1.934663        -0.397573         2.354305
