19
Iteration:  2598charge 0 multiplicity 1
 C         3.602896        -2.563598        -0.163656
 C         3.151839        -1.163309         0.089007
 O         2.649819        -0.327004        -1.086866
 C         1.669913         0.157836        -0.116041
 C         0.171931        -0.015040        -0.454671
 C         2.237504         1.566132         0.222862
 O         3.498942         1.271015         0.736414
 C         3.481461        -0.092712         1.182863
 C         2.098862        -0.721655         1.118549
 H         2.648567        -3.140315        -0.214286
 H         4.239912        -2.712726        -1.005511
 H         3.999389        -2.996794         0.747218
 H        -0.152279        -0.854171        -1.123996
 H        -0.324687        -0.253901         0.554147
 H        -0.175395         0.941621        -0.776434
 H         2.183769         2.047114        -0.697428
 H         1.552927         2.040647         0.910746
 H         4.185157        -0.240195         1.932474
 H         1.552943        -1.336677         1.848356
