19
Iteration:   662
 C         3.913054        -2.412478        -0.011562
 C         3.088014        -1.232910         0.174849
 O         1.983502        -0.917625        -0.758569
 C         1.521045        -0.001602         0.187906
 C         0.051051         0.254518         0.214178
 C         2.166013         1.380634        -0.261678
 O         3.566129         1.429368         0.082984
 C         3.738955         0.082635         0.665763
 C         2.502821        -0.522845         1.262006
 H         4.189682        -2.697318         1.018713
 H         3.439613        -3.277400        -0.404800
 H         4.878043        -2.107437        -0.496267
 H        -0.112412         1.205354        -0.342112
 H        -0.448004        -0.733694        -0.141694
 H        -0.434621         0.543947         1.179639
 H         1.995176         1.495041        -1.370903
 H         1.714861         2.305437         0.328561
 H         4.780383        -0.010845         1.117424
 H         2.466759        -0.898600         2.246660
