19
Iteration:  1072charge 0 multiplicity 1
 C         3.740248        -2.476320         0.165362
 C         3.074115        -1.154759         0.159216
 O         2.109467        -0.764555        -0.889238
 C         1.511092         0.155484         0.110640
 C         0.127691        -0.093986         0.339064
 C         2.158445         1.489271        -0.220198
 O         3.689695         1.250255        -0.089150
 C         3.724636         0.118267         0.738796
 C         2.379241        -0.334363         1.250844
 H         3.912745        -2.797340         1.146654
 H         3.040977        -3.219030        -0.334737
 H         4.619405        -2.557015        -0.442740
 H        -0.501787         0.182488        -0.532828
 H         0.042258        -1.207203         0.362666
 H        -0.190669         0.328990         1.279103
 H         1.978804         1.857636        -1.255770
 H         2.000089         2.320271         0.489270
 H         4.665321         0.114781         1.212018
 H         2.104980        -0.640317         2.297155
