19
Iteration:  4870charge 0 multiplicity 1
 C         3.767470        -2.496867        -0.116102
 C         3.128881        -1.181652         0.012485
 O         2.540539        -0.520605        -1.094535
 C         1.668317         0.177198        -0.115689
 C         0.177703         0.200045        -0.478813
 C         2.181760         1.547579         0.358776
 O         3.503334         1.208715         0.741506
 C         3.426197        -0.093513         1.133449
 C         2.123172        -0.726623         1.042137
 H         2.859054        -3.222375        -0.122607
 H         4.609828        -2.588253        -0.830317
 H         4.147661        -2.769367         0.874753
 H        -0.016066        -0.871030        -0.740642
 H        -0.458871         0.519838         0.519474
 H        -0.158601         0.916193        -1.256406
 H         2.329402         2.321152        -0.441984
 H         1.634314         1.945277         1.240056
 H         4.226832        -0.491885         1.736190
 H         1.497494        -1.283369         1.746123
