19
Iteration:  3332charge 0 multiplicity 1
 C         3.595340        -2.618515        -0.035802
 C         3.138143        -1.199948         0.207777
 O         2.411583        -0.707100        -0.987162
 C         1.606907         0.141381        -0.086622
 C         0.126481         0.083793        -0.602101
 C         2.320495         1.591171         0.070635
 O         3.629180         1.373388         0.695938
 C         3.500863         0.034984         1.180281
 C         2.195184        -0.585846         1.153825
 H         2.643853        -3.150265        -0.378058
 H         4.370067        -2.611401        -0.738457
 H         3.845732        -3.121004         0.853784
 H         0.300270         0.564035        -1.557803
 H        -0.259236        -1.016980        -0.752428
 H        -0.491783         0.737718         0.047341
 H         2.576693         2.037408        -0.874007
 H         1.634385         2.144503         0.695613
 H         4.378679        -0.083864         1.858991
 H         1.603613        -0.926111         1.971963
