19
Iteration:  1340
 C         3.743252        -2.581889         0.114492
 C         3.129677        -1.173599         0.140304
 O         2.095916        -0.931961        -0.813982
 C         1.551685         0.167618         0.208970
 C         0.027797        -0.015430         0.144129
 C         2.215063         1.508349        -0.247589
 O         3.578040         1.400126         0.011127
 C         3.778438         0.184042         0.683047
 C         2.433775        -0.354704         1.335179
 H         4.299871        -2.785129         0.998895
 H         3.021905        -3.409948         0.119166
 H         4.455521        -2.733374        -0.707680
 H        -0.399486         0.403510        -0.773833
 H        -0.088026        -1.095265         0.272828
 H        -0.517115         0.484449         0.990560
 H         2.003827         1.572787        -1.335883
 H         1.776453         2.364894         0.352736
 H         4.779748         0.068061         1.085412
 H         2.370009        -0.575362         2.400738
