19
Iteration:   679charge 0 multiplicity 1
 C         3.858030        -2.528994        -0.009909
 C         3.175107        -1.169885         0.042851
 O         2.054577        -0.931969        -0.784636
 C         1.538393         0.196270         0.232743
 C         0.029863         0.084794         0.207560
 C         2.154432         1.497333        -0.215160
 O         3.555643         1.318747         0.084657
 C         3.758666         0.094130         0.673052
 C         2.484013        -0.377752         1.330878
 H         4.154530        -2.921251         0.957223
 H         2.999035        -3.240326        -0.367953
 H         4.723471        -2.518713        -0.651896
 H        -0.487830         0.727379        -0.511610
 H        -0.288285        -0.853042        -0.165266
 H        -0.319200         0.235536         1.215578
 H         1.987057         1.562751        -1.275138
 H         1.703107         2.268810         0.336675
 H         4.660557         0.031036         1.190829
 H         2.166133        -0.438606         2.429918
