19
Iteration:  1482
 C         3.545685        -2.633386         0.043982
 C         3.165762        -1.202588         0.188171
 O         2.237240        -0.764933        -0.856014
 C         1.620196         0.047012         0.135505
 C         0.111595        -0.063758         0.063121
 C         2.134638         1.495398        -0.092581
 O         3.502979         1.425579         0.097803
 C         3.792119         0.198257         0.741480
 C         2.505107        -0.361028         1.249938
 H         3.805096        -2.889617        -0.978248
 H         4.367593        -3.009346         0.762108
 H         2.544375        -3.079081         0.307904
 H        -0.262625        -0.238695         1.087658
 H        -0.254658         0.932308        -0.274857
 H        -0.209235        -0.895031        -0.553450
 H         1.875443         1.728219        -1.156144
 H         1.588868         2.187624         0.546771
 H         4.753049         0.146020         1.189293
 H         2.497629        -0.610652         2.346126
