19
Iteration:  4265charge 0 multiplicity 1
 C         3.495384        -2.601372        -0.020558
 C         3.021120        -1.272244         0.266273
 O         2.604762        -0.520379        -0.885801
 C         1.653359         0.212719        -0.056496
 C         0.127104        -0.034459        -0.531443
 C         2.300355         1.576547        -0.066060
 O         3.639339         1.267527         0.498829
 C         3.532055        -0.057523         1.189536
 C         2.128743        -0.478602         1.235610
 H         2.685633        -3.286672         0.119334
 H         3.821464        -2.499595        -1.134587
 H         4.324798        -2.986495         0.546875
 H        -0.600834        -0.263305         0.261554
 H        -0.123244         0.885193        -1.074763
 H        -0.007909        -0.883957        -1.203929
 H         2.487406         1.907235        -1.097179
 H         1.703278         2.341940         0.516616
 H         4.221604        -0.149530         1.996443
 H         1.547056        -0.559355         2.180822
