19
Iteration:  3169charge 0 multiplicity 1
 C         3.615304        -2.629357         0.052191
 C         3.214776        -1.199981         0.146640
 O         2.706237        -0.579138        -1.023725
 C         1.643720         0.214483        -0.174105
 C         0.140262         0.122758        -0.374958
 C         2.217939         1.625197         0.029164
 O         3.559764         1.245422         0.607381
 C         3.373550        -0.071281         1.169581
 C         2.076448        -0.566563         1.069938
 H         2.779899        -3.182022        -0.497486
 H         4.578703        -2.790949        -0.461361
 H         3.607580        -3.150426         0.983769
 H        -0.268338         0.274179        -1.307898
 H        -0.297581        -0.851559        -0.066004
 H        -0.310634         0.788557         0.297176
 H         2.416987         2.159073        -0.848693
 H         1.450867         1.926668         0.741592
 H         4.029778        -0.179104         2.027578
 H         1.439805        -0.995086         1.881408
