19
Iteration:   952
 C         3.690359        -2.493820         0.117182
 C         3.013087        -1.155498         0.198926
 O         2.113662        -0.696087        -0.880072
 C         1.613288         0.216889         0.158429
 C         0.136018        -0.215596         0.213225
 C         2.257697         1.620080        -0.155321
 O         3.624542         1.246289        -0.020527
 C         3.727255         0.110974         0.713428
 C         2.381083        -0.404533         1.259005
 H         4.633441        -2.454832         0.496855
 H         3.149684        -3.393962         0.585803
 H         3.589729        -2.849020        -0.877748
 H        -0.149036        -0.597232        -0.819676
 H         0.125072        -1.140019         0.833076
 H        -0.734111         0.356404         0.564405
 H         2.047855         1.952857        -1.198465
 H         1.986564         2.394517         0.502026
 H         4.816249         0.085772         1.180688
 H         1.943120        -0.696027         2.181995
