19
Iteration:  3666charge 0 multiplicity 1
 C         3.696057        -2.584160         0.124771
 C         3.087333        -1.188954         0.182471
 O         2.412497        -0.680983        -1.036738
 C         1.631047         0.116526        -0.093492
 C         0.190668         0.315575        -0.540871
 C         2.226150         1.509634         0.085851
 O         3.587296         1.266994         0.588596
 C         3.562400        -0.048067         1.094480
 C         2.163295        -0.616124         1.169829
 H         3.009630        -3.451528         0.093511
 H         4.193804        -2.737131        -0.883968
 H         4.376304        -2.741823         0.926022
 H        -0.001816         1.245649        -1.076689
 H        -0.335807        -0.425241        -1.293410
 H        -0.521842         0.330222         0.352940
 H         2.259396         2.154184        -0.897796
 H         1.514402         1.999950         0.790579
 H         4.253831        -0.149658         1.956092
 H         1.628430        -1.060415         2.041236
