19
Iteration:  4107
 C         3.603026        -2.571056         0.028030
 C         3.045042        -1.143308         0.192526
 O         2.507599        -0.658678        -0.914630
 C         1.623465         0.181347        -0.070878
 C         0.124938         0.182532        -0.551500
 C         2.323269         1.553399        -0.023854
 O         3.583942         1.268930         0.585801
 C         3.529539        -0.079818         1.139356
 C         2.172014        -0.582722         1.167999
 H         2.923085        -3.135625        -0.667940
 H         4.472508        -2.593224        -0.536103
 H         3.832294        -3.046088         1.036935
 H        -0.441465         0.975201        -0.041641
 H        -0.013822         0.074913        -1.610787
 H        -0.360267        -0.668432        -0.028043
 H         2.460607         1.893219        -1.068451
 H         1.813346         2.186363         0.680952
 H         4.146741        -0.313298         1.996472
 H         1.703474        -1.021899         2.037701
