19
Iteration:  3435
 C         3.765767        -2.552644         0.004765
 C         3.123329        -1.215146         0.149127
 O         2.390956        -0.697231        -0.988481
 C         1.604504         0.108132        -0.117804
 C         0.215484         0.350509        -0.430053
 C         2.332924         1.444263        -0.090896
 O         3.470368         1.325539         0.733943
 C         3.475302        -0.058926         1.172391
 C         2.100073        -0.662127         1.129052
 H         3.162601        -3.403854        -0.144856
 H         4.589890        -2.643159        -0.768803
 H         4.383689        -2.669492         0.943170
 H         0.340881         0.984477        -1.367565
 H        -0.260554        -0.527954        -0.772929
 H        -0.328635         0.824034         0.402352
 H         2.574192         1.905552        -1.074487
 H         1.720734         2.254978         0.342862
 H         4.278585        -0.102900         1.951534
 H         1.392829        -1.052018         1.884262
