19
Iteration:   526
 C         3.478005        -2.618133         0.189609
 C         3.288849        -1.119538         0.057106
 O         2.279158        -0.731294        -0.939883
 C         1.551713         0.085546         0.159108
 C         0.087926        -0.093975         0.182439
 C         2.071093         1.461393         0.015620
 O         3.558258         1.397895        -0.086291
 C         3.787786         0.200843         0.673313
 C         2.552993        -0.424081         1.265223
 H         4.128739        -2.878565         1.057054
 H         2.433223        -2.918872         0.467208
 H         3.715394        -3.233389        -0.655388
 H        -0.203455         0.217622        -0.831385
 H        -0.169011        -1.111435         0.456172
 H        -0.417445         0.594421         0.867361
 H         1.706604         2.127781        -0.786338
 H         1.659748         1.878562         1.009140
 H         4.824479         0.124043         1.192863
 H         2.160488        -0.767739         2.218194
