19
Iteration:  4478
 C         3.704101        -2.641356         0.167423
 C         3.194115        -1.208889         0.133696
 O         2.514728        -0.554200        -1.049801
 C         1.556313         0.173384        -0.175500
 C         0.110659         0.283524        -0.495564
 C         2.204847         1.503134         0.080856
 O         3.590963         1.232616         0.632203
 C         3.527576        -0.065174         1.079125
 C         2.148588        -0.610408         1.102327
 H         2.706028        -3.289379         0.095361
 H         4.393378        -2.977595        -0.584049
 H         4.034895        -2.840121         1.181639
 H        -0.308532         1.186931        -0.817743
 H         0.025397        -0.640412        -1.125254
 H        -0.414383         0.071459         0.405145
 H         2.358062         2.086096        -0.847929
 H         1.581758         2.020297         0.909030
 H         4.194363        -0.292494         1.916348
 H         1.444124        -0.790634         1.948312
