19
Iteration:   798
 C         3.885518        -2.510165        -0.029614
 C         3.157870        -1.191714         0.154211
 O         2.129366        -0.892428        -0.812059
 C         1.531638         0.104808         0.193984
 C        -0.024713         0.230271         0.225549
 C         2.188407         1.411307        -0.172983
 O         3.555050         1.330158         0.011347
 C         3.700566         0.091478         0.751750
 C         2.438072        -0.470003         1.268868
 H         4.752638        -2.594609         0.601721
 H         3.273304        -3.422911         0.241417
 H         4.298639        -2.505899        -1.032331
 H        -0.384056         0.445163        -0.816929
 H        -0.512655        -0.676644         0.538066
 H        -0.329934         1.060783         0.910422
 H         2.042756         1.534974        -1.283116
 H         1.723374         2.298547         0.433479
 H         4.577031         0.241948         1.333350
 H         2.123335        -0.788468         2.285138
