19
Iteration:  3641charge 0 multiplicity 1
 C         3.867464        -2.523686         0.045042
 C         3.110089        -1.199295         0.237640
 O         2.463930        -0.724351        -0.999245
 C         1.563673         0.202829        -0.063484
 C         0.083654         0.355685        -0.474783
 C         2.330855         1.533039         0.018829
 O         3.609300         1.189245         0.566833
 C         3.445577        -0.088323         1.135512
 C         2.032688        -0.624042         1.135165
 H         3.189286        -3.312365        -0.019802
 H         4.249966        -2.652527        -0.985948
 H         4.636448        -2.809422         0.816885
 H        -0.084718         0.849093        -1.462173
 H        -0.404907        -0.575599        -0.644931
 H        -0.534161         0.907680         0.252261
 H         2.462775         1.964310        -0.966810
 H         1.725380         2.210236         0.700378
 H         3.993772        -0.242942         2.050994
 H         1.441892        -1.060283         1.888297
