19
Iteration:   295charge 0 multiplicity 1
 C         3.761893        -2.598952         0.046821
 C         3.134215        -1.175528         0.148262
 O         2.107590        -0.772094        -0.815390
 C         1.562382         0.111431         0.200330
 C         0.051701         0.012797         0.155503
 C         2.167020         1.453972        -0.195700
 O         3.559935         1.376178         0.046090
 C         3.764018         0.097517         0.648941
 C         2.472160        -0.360900         1.329598
 H         4.254192        -2.850982         1.055911
 H         3.004611        -3.362317        -0.244744
 H         4.549519        -2.684228        -0.701928
 H        -0.410708         0.951324        -0.226986
 H        -0.198912        -0.947010        -0.350065
 H        -0.361258        -0.101250         1.211528
 H         2.016868         1.600380        -1.271034
 H         1.636055         2.273850         0.350255
 H         4.682695         0.056033         1.142476
 H         2.230144        -0.486317         2.438467
