19
Iteration:   153charge 0 multiplicity 1
 C         3.493439        -2.779189         0.160888
 C         3.156236        -1.201963         0.071542
 O         2.351673        -0.554947        -0.977511
 C         1.590462         0.194433         0.051629
 C         0.120639        -0.247490         0.203352
 C         2.121375         1.626048        -0.011101
 O         3.480203         1.318077         0.045553
 C         3.738234         0.137474         0.745586
 C         2.493894        -0.332119         1.176350
 H         4.088933        -2.921529         1.095927
 H         2.595117        -3.387985         0.227901
 H         4.135884        -3.225701        -0.617374
 H        -0.431283        -0.035887        -0.710157
 H         0.195225        -1.250683         0.602032
 H        -0.164459         0.391635         1.033237
 H         2.115685         2.268488        -0.899185
 H         1.702059         2.218360         0.843214
 H         4.662573         0.276137         1.420161
 H         2.267293        -0.702251         2.221557
