19
Iteration:  3945charge 0 multiplicity 1
 C         3.674779        -2.624168         0.321534
 C         3.044550        -1.230337         0.189485
 O         2.521069        -0.604793        -1.048883
 C         1.575305         0.227006        -0.116681
 C         0.016138         0.197059        -0.402514
 C         2.372389         1.531238        -0.046855
 O         3.660358         1.267129         0.520079
 C         3.525880        -0.079024         1.031191
 C         2.108226        -0.608381         1.060753
 H         3.328164        -3.372109        -0.401584
 H         4.655594        -2.556747        -0.039280
 H         3.697934        -2.776177         1.434577
 H        -0.384501        -0.633443        -1.037818
 H        -0.543797         0.152448         0.559778
 H        -0.301077         1.187852        -0.844450
 H         2.426665         1.853451        -1.093493
 H         1.816206         2.217977         0.678369
 H         4.139072        -0.415045         1.869247
 H         1.514999        -0.620711         1.998215
