19
Iteration:  4231
 C         3.593185        -2.559581         0.135777
 C         3.119486        -1.189513         0.179141
 O         2.385497        -0.608716        -1.010248
 C         1.620868         0.182903        -0.118999
 C         0.186530         0.104623        -0.484245
 C         2.290817         1.523296         0.023074
 O         3.617011         1.276415         0.602973
 C         3.520856        -0.085325         1.114794
 C         2.201441        -0.566577         1.126496
 H         2.726301        -3.211953         0.230082
 H         4.049824        -2.779584        -0.903797
 H         4.320709        -2.758882         0.896046
 H        -0.414777         0.638833         0.186873
 H         0.031912         0.683440        -1.460806
 H         0.028851        -0.944069        -0.682608
 H         2.458452         2.004722        -0.940179
 H         1.656698         2.247427         0.623266
 H         4.196219        -0.215436         1.952973
 H         1.562259        -0.669634         2.018056
