19
Iteration:  4127
 C         3.751098        -2.593076        -0.096212
 C         3.159846        -1.216088         0.288667
 O         2.332820        -0.652925        -0.954724
 C         1.574419         0.144174        -0.083737
 C         0.131458         0.143447        -0.548796
 C         2.375201         1.574007         0.012346
 O         3.695640         1.215184         0.594162
 C         3.487738        -0.042678         1.179618
 C         2.005208        -0.441469         1.250606
 H         3.066425        -2.925386        -0.935364
 H         4.730294        -2.527130        -0.492442
 H         3.790511        -3.372704         0.755509
 H        -0.500248         1.107128        -0.448690
 H         0.365097        -0.224467        -1.483380
 H        -0.572016        -0.519746        -0.016454
 H         2.546993         1.621621        -1.084300
 H         1.656709         2.251833         0.567461
 H         4.313282        -0.070969         1.846280
 H         1.381978        -0.560202         2.154542
