19
Iteration:  2008charge 0 multiplicity 1
 C         3.738788        -2.528650        -0.125860
 C         3.170392        -1.133416         0.093400
 O         2.449586        -0.526154        -0.954897
 C         1.586105         0.225567        -0.050376
 C         0.100174        -0.033311        -0.224715
 C         2.226626         1.609492         0.125270
 O         3.619011         1.238593         0.488316
 C         3.506429        -0.105806         1.021916
 C         2.101370        -0.613861         1.199499
 H         3.178068        -2.832582        -1.029031
 H         4.760975        -2.679568        -0.488134
 H         3.542616        -3.258093         0.643535
 H         0.149652        -0.915135        -0.877707
 H        -0.424593        -0.216496         0.721281
 H        -0.379494         0.791526        -0.837493
 H         2.290072         2.215460        -0.806520
 H         1.742141         2.334986         0.886016
 H         4.312915        -0.287158         1.825603
 H         1.625982        -0.989659         2.071871
