19
Iteration:  3494charge 0 multiplicity 1
 C         3.734780        -2.548758         0.048763
 C         3.042838        -1.228921         0.136082
 O         2.444190        -0.617032        -0.977057
 C         1.603177         0.303247        -0.112887
 C         0.269134         0.105054        -0.487323
 C         2.331631         1.605700         0.059056
 O         3.595476         1.189836         0.584601
 C         3.405406        -0.159189         1.124905
 C         2.024985        -0.507180         1.182572
 H         2.882346        -3.414494         0.046514
 H         4.305335        -2.486783        -0.876411
 H         4.369011        -2.642554         0.935966
 H        -0.102355         0.819288        -1.144383
 H         0.335452        -0.915338        -0.999932
 H        -0.466533         0.114799         0.293073
 H         2.613481         1.962634        -0.988841
 H         1.748842         2.245603         0.816986
 H         4.228795        -0.323813         1.758993
 H         1.556879        -0.766235         2.139045
