19
Iteration:  3807charge 0 multiplicity 1
 C         3.840179        -2.602018         0.205848
 C         3.059924        -1.267370         0.189494
 O         2.380547        -0.793849        -1.097825
 C         1.606060         0.240517        -0.061998
 C         0.080282         0.363505        -0.444002
 C         2.315126         1.536003         0.002328
 O         3.593752         1.293764         0.536700
 C         3.516071        -0.079887         1.117906
 C         2.094440        -0.604087         1.144607
 H         3.340293        -3.556574         0.156777
 H         4.543108        -2.700400        -0.761574
 H         4.409697        -2.520685         1.121147
 H        -0.607655         0.152961         0.323440
 H        -0.167696         1.470986        -0.658471
 H         0.007968        -0.222932        -1.395763
 H         2.397070         1.954590        -1.072766
 H         1.723317         2.364054         0.590396
 H         4.179238        -0.436573         1.916242
 H         1.490324        -0.954481         2.019804
