19
Iteration:   490
 C         3.821101        -2.537252         0.082685
 C         3.077451        -1.196686         0.117926
 O         2.118913        -0.735722        -0.889532
 C         1.583766         0.180487         0.165573
 C         0.094005        -0.012922         0.277031
 C         2.161164         1.507136        -0.245443
 O         3.627155         1.313132         0.019581
 C         3.678734         0.018513         0.721654
 C         2.361356        -0.394171         1.294753
 H         4.302679        -2.677742         1.144466
 H         3.127484        -3.376972        -0.101927
 H         4.681863        -2.593312        -0.700462
 H        -0.538641         0.463947        -0.484748
 H        -0.085983        -1.110151         0.164855
 H        -0.223659         0.260147         1.317980
 H         2.013330         1.890560        -1.309164
 H         1.906359         2.323392         0.505550
 H         4.645636        -0.091961         1.220761
 H         1.945747        -0.510152         2.285886
