19
Iteration:  4479
 C         3.718352        -2.632555         0.170501
 C         3.189612        -1.210264         0.141303
 O         2.499852        -0.545787        -1.045813
 C         1.560336         0.174789        -0.173776
 C         0.113737         0.277692        -0.496086
 C         2.210185         1.500737         0.078922
 O         3.595630         1.228119         0.629826
 C         3.525096        -0.068136         1.085347
 C         2.143051        -0.603876         1.096414
 H         2.716376        -3.271638         0.035040
 H         4.380165        -3.007784        -0.598673
 H         4.022636        -2.827955         1.165617
 H        -0.253968         1.185054        -0.826584
 H        -0.015399        -0.671262        -1.117541
 H        -0.412112         0.093729         0.396510
 H         2.342489         2.048994        -0.882900
 H         1.589315         2.029384         0.890769
 H         4.195791        -0.321788         1.936478
 H         1.442997        -0.834478         1.934256
