19
Iteration:  2052
 C         3.534580        -2.652141        -0.182841
 C         3.266767        -1.100413         0.059987
 O         2.443503        -0.566752        -0.992919
 C         1.634817         0.172705         0.009845
 C         0.078607        -0.044848        -0.387029
 C         2.241137         1.584660         0.116411
 O         3.494342         1.393576         0.741614
 C         3.630869        -0.028660         1.004547
 C         2.274138        -0.626280         1.144820
 H         2.666538        -3.233513         0.224738
 H         3.735171        -2.969069        -1.188121
 H         4.423393        -2.880308         0.355837
 H        -0.285442        -0.993649         0.017114
 H        -0.477268         0.727567         0.179550
 H        -0.087627        -0.007087        -1.511067
 H         2.266756         2.214521        -0.810716
 H         1.651963         2.219061         0.876112
 H         4.405652        -0.275348         1.799553
 H         1.821686        -1.084295         2.007056
