19
Iteration:  1699
 C         3.696918        -2.588752        -0.062514
 C         3.203754        -1.134712         0.080091
 O         2.281649        -0.721692        -0.973015
 C         1.563046         0.063520         0.084323
 C         0.010572         0.048750        -0.146735
 C         2.166524         1.509808         0.153683
 O         3.558608         1.380354         0.311173
 C         3.721136         0.126649         0.816773
 C         2.404378        -0.555737         1.314256
 H         4.409361        -2.918086        -0.810525
 H         3.902981        -2.926737         0.966915
 H         2.696421        -3.063339        -0.319403
 H        -0.175183        -0.668171        -0.957974
 H        -0.701649        -0.257530         0.665479
 H        -0.317141         1.016434        -0.519589
 H         2.036027         1.984642        -0.850680
 H         1.735137         2.280891         0.922129
 H         4.618400         0.050021         1.514261
 H         2.209377        -1.071207         2.206194
