19
Iteration:  1701
 C         3.696211        -2.586841        -0.066957
 C         3.205643        -1.135547         0.068857
 O         2.276260        -0.728179        -0.974501
 C         1.552890         0.054970         0.089192
 C         0.012505         0.058831        -0.156821
 C         2.168307         1.499477         0.159695
 O         3.565531         1.384068         0.315146
 C         3.727063         0.121295         0.825805
 C         2.395777        -0.545686         1.317465
 H         4.381383        -2.844656        -0.857751
 H         3.964843        -2.922142         0.978916
 H         2.711334        -3.034658        -0.249104
 H        -0.193192        -0.651779        -0.952593
 H        -0.614418        -0.213249         0.681333
 H        -0.312859         1.007550        -0.523357
 H         2.052206         1.913162        -0.887261
 H         1.641183         2.246177         0.895310
 H         4.640373         0.078357         1.488661
 H         2.213067        -1.071739         2.234642
