19
Iteration:  2949charge 0 multiplicity 1
 C         3.611505        -2.527266        -0.077269
 C         3.075812        -1.273683         0.233805
 O         2.514193        -0.639678        -0.870416
 C         1.629247         0.185135        -0.005858
 C         0.196986         0.124591        -0.571153
 C         2.287717         1.584823         0.034488
 O         3.580041         1.276763         0.523311
 C         3.531185        -0.059963         1.161008
 C         2.110310        -0.576964         1.198170
 H         2.624463        -3.087398        -0.354906
 H         4.182153        -2.329551        -0.963949
 H         4.211979        -3.024209         0.758002
 H         0.209150        -0.402911        -1.542700
 H        -0.335415        -0.442813         0.131043
 H        -0.405697         1.031155        -0.860262
 H         2.192834         2.166594        -0.841192
 H         1.760646         2.222817         0.763676
 H         4.285764        -0.133187         1.981006
 H         1.512054        -1.077917         1.928016
