19
Iteration:  1015
 C         3.901986        -2.484817        -0.007711
 C         3.140222        -1.234929         0.142832
 O         2.106118        -1.012766        -0.752626
 C         1.565382         0.007734         0.105794
 C         0.056570         0.352752         0.201927
 C         2.120371         1.407055        -0.295257
 O         3.495230         1.339198         0.052143
 C         3.680680         0.188480         0.796619
 C         2.474701        -0.501051         1.299446
 H         4.665419        -2.473497         0.780418
 H         3.202704        -3.360049         0.226540
 H         4.536278        -2.522113        -0.919543
 H        -0.055744         1.296586        -0.347845
 H        -0.520675        -0.505286        -0.085839
 H        -0.164764         0.595141         1.259393
 H         1.946773         1.590286        -1.409580
 H         1.614308         2.244832         0.322014
 H         4.770260         0.304272         1.258667
 H         2.143052        -0.635714         2.301003
