19
Iteration:  3251
 C         3.819599        -2.457522         0.004354
 C         3.070459        -1.213675         0.262464
 O         2.525312        -0.696317        -1.025575
 C         1.612056         0.127197        -0.204026
 C         0.152142         0.290085        -0.504516
 C         2.294779         1.472950         0.082455
 O         3.606153         1.165751         0.527521
 C         3.420168        -0.075336         1.231643
 C         1.975666        -0.572790         1.206987
 H         3.186639        -3.333136        -0.236533
 H         4.503211        -2.295011        -0.922623
 H         4.489006        -2.529983         0.938445
 H        -0.060918         1.100322        -1.298054
 H        -0.365347        -0.640811        -0.595109
 H        -0.155209         0.859746         0.441150
 H         2.373476         2.058500        -0.887949
 H         1.600277         2.054923         0.624624
 H         4.019702        -0.112295         2.103654
 H         1.222615        -0.939734         1.962035
