19
Iteration:   719charge 0 multiplicity 1
 C         3.504102        -2.519353         0.031440
 C         3.097110        -1.106947         0.184784
 O         2.329546        -0.666255        -0.945648
 C         1.576073         0.187552         0.164826
 C         0.192987        -0.223344         0.275256
 C         2.133463         1.506759        -0.114706
 O         3.555950         1.233359        -0.085980
 C         3.758097         0.136937         0.782581
 C         2.400925        -0.370423         1.278592
 H         4.360853        -2.698885         0.765640
 H         2.691157        -3.177975         0.200825
 H         3.773468        -2.807154        -1.001054
 H        -0.456131        -0.132922        -0.641021
 H         0.158791        -1.306665         0.600746
 H        -0.171128         0.353305         1.192383
 H         1.821887         1.997735        -1.108662
 H         2.020730         2.345471         0.692682
 H         4.687423         0.291753         1.391764
 H         2.042751        -0.672367         2.268938
