19
Iteration:  3992charge 0 multiplicity 1
 C         3.731345        -2.504645         0.018553
 C         3.032837        -1.188126         0.290699
 O         2.400236        -0.753991        -0.900884
 C         1.586349         0.116607        -0.065336
 C         0.176836         0.275158        -0.553492
 C         2.351355         1.449989        -0.108099
 O         3.677224         1.256136         0.552310
 C         3.500171        -0.011371         1.143578
 C         2.019334        -0.537002         1.248138
 H         3.031199        -3.165180        -0.406069
 H         4.360925        -2.452316        -0.932812
 H         4.258656        -2.805077         0.868180
 H        -0.300417        -0.676873        -0.438749
 H        -0.485322         0.950687         0.049920
 H         0.180876         0.581129        -1.614375
 H         2.524599         1.712681        -1.166687
 H         1.783542         2.214444         0.477000
 H         4.144800        -0.177958         2.021819
 H         1.536007        -0.832156         2.153677
