19
Iteration:  4121charge 0 multiplicity 1
 C         3.677657        -2.559313        -0.071196
 C         3.198314        -1.235292         0.254177
 O         2.404329        -0.651781        -0.950213
 C         1.534520         0.172666        -0.078149
 C         0.104924         0.140873        -0.514079
 C         2.336052         1.507747        -0.017612
 O         3.697461         1.242160         0.618982
 C         3.528409        -0.030205         1.137598
 C         2.025907        -0.482345         1.241597
 H         2.887776        -3.020412        -0.672472
 H         4.746867        -2.508382        -0.460865
 H         3.660520        -3.217509         0.771751
 H        -0.357353         1.095535        -0.472633
 H         0.262441        -0.038121        -1.668318
 H        -0.558318        -0.638192        -0.102852
 H         2.519997         1.906135        -1.032473
 H         1.719618         2.225654         0.517092
 H         4.263405        -0.188318         1.991280
 H         1.413682        -0.637113         2.124746
