19
Iteration:  4638
 C         3.571931        -2.582249         0.008609
 C         3.117352        -1.149022         0.098365
 O         2.574099        -0.502639        -1.072317
 C         1.636637         0.223878        -0.131926
 C         0.248876         0.028746        -0.456284
 C         2.235825         1.560952         0.166422
 O         3.574250         1.240429         0.716799
 C         3.484158        -0.089718         1.064221
 C         2.067984        -0.597806         1.128313
 H         2.717815        -3.128767         0.157930
 H         4.025723        -2.711308        -1.001254
 H         4.317853        -3.056387         0.702211
 H        -0.330161        -0.591661         0.278599
 H        -0.290856         0.960741        -0.555191
 H         0.259111        -0.505800        -1.473960
 H         2.382398         2.274961        -0.679015
 H         1.655238         2.067729         1.009676
 H         4.207716        -0.365922         1.867365
 H         1.387378        -0.882023         1.963564
