19
Iteration:  1880
 C         3.626897        -2.542256        -0.108854
 C         3.115281        -1.223232         0.160646
 O         2.431508        -0.476470        -1.015016
 C         1.594008         0.177933        -0.009777
 C         0.019700        -0.138511        -0.124348
 C         2.267137         1.607421         0.119054
 O         3.615275         1.325842         0.457012
 C         3.606354        -0.059711         0.930408
 C         2.219050        -0.570444         1.137079
 H         4.582665        -2.662112         0.517217
 H         2.976042        -3.351125         0.187578
 H         4.060872        -2.560717        -1.118458
 H        -0.075063        -1.188087         0.058313
 H        -0.491599         0.344108         0.697059
 H        -0.286742         0.119401        -1.140196
 H         2.432471         2.010525        -0.914164
 H         1.782172         2.371780         0.783793
 H         4.332792        -0.136864         1.793782
 H         1.610001        -0.945604         1.920246
