19
Iteration:  4586
 C         3.816445        -2.557186         0.018390
 C         3.120328        -1.223976         0.070398
 O         2.473203        -0.579700        -1.049134
 C         1.557468         0.195684        -0.034297
 C         0.150743         0.303825        -0.532915
 C         2.257690         1.505611         0.112283
 O         3.543970         1.253499         0.635305
 C         3.466474        -0.148516         1.163883
 C         2.096837        -0.673873         1.175320
 H         3.083386        -3.355440        -0.301509
 H         4.782255        -2.541422        -0.491784
 H         4.082543        -2.871989         1.036975
 H        -0.154237        -0.659599        -0.881036
 H        -0.622934         0.609113         0.232551
 H         0.144199         1.128457        -1.255401
 H         2.414081         1.831367        -0.902731
 H         1.695033         2.283058         0.591827
 H         4.222417        -0.462385         1.935607
 H         1.537671        -0.964705         2.094890
