19
Iteration:   834
 C         4.006007        -2.307700        -0.074709
 C         3.058806        -1.237671         0.216862
 O         2.050912        -0.848105        -0.750141
 C         1.512557         0.186267         0.142485
 C         0.077071         0.135026         0.324592
 C         2.319221         1.399559        -0.316238
 O         3.558753         1.104709        -0.060916
 C         3.611556         0.053019         0.833316
 C         2.344056        -0.347958         1.270855
 H         4.489362        -2.581201         0.857574
 H         3.588284        -3.170096        -0.750483
 H         4.756765        -1.880235        -0.784876
 H        -0.569334         0.785638        -0.301790
 H        -0.308650        -0.919964         0.205359
 H        -0.101895         0.442181         1.326356
 H         2.035271         1.600744        -1.341271
 H         2.020137         2.345164         0.269527
 H         4.420464        -0.214211         1.672939
 H         1.801939        -0.496778         2.157759
