19
Iteration:  2181
 C         3.740349        -2.494961        -0.270937
 C         3.170865        -1.170425        -0.013963
 O         2.395845        -0.504447        -1.065436
 C         1.567739         0.149596         0.027776
 C         0.146616         0.134325        -0.471484
 C         2.224044         1.544690         0.121036
 O         3.455376         1.290406         0.922473
 C         3.614667        -0.124609         1.187444
 C         2.226889        -0.754661         1.102725
 H         4.750637        -2.400411        -0.708464
 H         3.726458        -3.138902         0.685905
 H         3.196925        -2.983454        -1.131638
 H        -0.173961         1.163443        -0.502562
 H         0.035795        -0.425726        -1.394903
 H        -0.448678        -0.374295         0.344887
 H         2.597644         1.923232        -0.800867
 H         1.587200         2.295695         0.674193
 H         4.167475        -0.184486         2.145847
 H         1.695816        -1.257546         1.908624
