19
Iteration:   313
 C         3.488096        -2.545294         0.072959
 C         3.220566        -1.138984         0.131638
 O         2.178960        -0.883664        -0.817035
 C         1.557415         0.127913         0.197545
 C         0.058198        -0.164844         0.148817
 C         2.081683         1.528457        -0.162782
 O         3.635304         1.425756         0.016002
 C         3.824275         0.218467         0.738554
 C         2.571624        -0.386336         1.268813
 H         3.839076        -2.952141         0.993671
 H         2.531510        -2.951436        -0.136962
 H         4.173848        -2.740577        -0.829545
 H        -0.414701         0.742839        -0.294237
 H        -0.065118        -1.089357        -0.426067
 H        -0.596876        -0.228505         1.031471
 H         1.841200         1.848368        -1.194709
 H         1.830893         2.348082         0.497241
 H         4.803023         0.101954         1.285857
 H         2.460140        -0.825933         2.244582
