19
Iteration:  2931
 C         3.770437        -2.526074        -0.012878
 C         3.044753        -1.186049         0.169117
 O         2.362479        -0.633964        -1.004670
 C         1.624124         0.201441        -0.084495
 C         0.122116         0.091794        -0.539098
 C         2.338368         1.587425         0.071217
 O         3.672053         1.186688         0.626430
 C         3.513202        -0.051674         1.134095
 C         2.018950        -0.522066         1.200030
 H         3.180916        -3.377275        -0.038429
 H         4.378303        -2.481797        -0.948266
 H         4.382665        -2.815672         0.805380
 H         0.123379        -0.482169        -1.479563
 H        -0.520036        -0.437686         0.272785
 H        -0.346545         1.068322        -0.728952
 H         2.611593         2.037486        -0.920529
 H         1.754812         2.238929         0.781721
 H         4.204761        -0.349113         1.961017
 H         1.544584        -0.785225         2.207252
