19
Iteration:  2967
 C         3.508724        -2.707344        -0.109270
 C         3.190076        -1.178906         0.290911
 O         2.595967        -0.531593        -0.920621
 C         1.551958         0.169335        -0.096997
 C         0.184216         0.104545        -0.566049
 C         2.183856         1.487059         0.097384
 O         3.567195         1.271096         0.507831
 C         3.546003         0.034085         1.172649
 C         2.176690        -0.584866         1.276649
 H         2.604334        -3.164872        -0.600176
 H         4.351122        -2.681821        -0.844660
 H         3.974151        -3.218972         0.762107
 H         0.187804        -0.149080        -1.635003
 H        -0.598070        -0.447681        -0.028571
 H        -0.088994         1.157749        -0.627592
 H         2.365934         1.988087        -0.961421
 H         1.649755         2.273754         0.682358
 H         4.211442        -0.093742         1.987458
 H         1.692677        -0.784519         2.209570
