19
Iteration:  3596charge 0 multiplicity 1
 C         3.732206        -2.490713        -0.022039
 C         3.103341        -1.145503         0.229419
 O         2.373448        -0.713961        -1.022431
 C         1.498943         0.255919        -0.083141
 C         0.111740         0.129823        -0.444831
 C         2.434496         1.576193        -0.047050
 O         3.660774         1.205965         0.676589
 C         3.474353        -0.105442         1.172893
 C         2.058590        -0.567337         1.147045
 H         3.234250        -3.167057        -0.662608
 H         4.557997        -2.120193        -0.662687
 H         4.109098        -2.895547         0.961150
 H         0.205037        -0.211786        -1.518252
 H        -0.389636        -0.655354         0.013966
 H        -0.469647         1.039184        -0.392411
 H         2.635895         1.828358        -1.052864
 H         2.111237         2.507525         0.533328
 H         4.092994        -0.469453         2.026539
 H         1.449959        -0.968928         1.981488
