19
Iteration:  4556charge 0 multiplicity 1
 C         3.867596        -2.448231        -0.107881
 C         3.097863        -1.207156         0.300563
 O         2.385575        -0.712602        -0.895197
 C         1.567899         0.205077        -0.138584
 C         0.136832         0.312973        -0.562335
 C         2.368666         1.497660         0.002249
 O         3.607936         1.249541         0.633900
 C         3.445200        -0.170160         1.191926
 C         1.994776        -0.647273         1.220534
 H         3.265479        -2.742172        -1.042449
 H         4.711923        -2.200927        -0.707000
 H         4.154892        -3.155247         0.611052
 H         0.095646        -0.361993        -1.395285
 H        -0.510024        -0.099334         0.279445
 H        -0.227250         1.286120        -0.768271
 H         2.595660         1.802277        -1.053724
 H         1.698883         2.305733         0.442275
 H         4.214992        -0.491589         1.943579
 H         1.406742        -0.857987         2.122054
