19
Iteration:  2392charge 0 multiplicity 1
 C         3.566219        -2.634044        -0.323475
 C         3.309639        -1.111810         0.086686
 O         2.598550        -0.494372        -0.939592
 C         1.601388         0.145215        -0.071245
 C         0.239122         0.145634        -0.568053
 C         2.109373         1.491041         0.337756
 O         3.461427         1.331856         0.677726
 C         3.500108        -0.112087         1.172733
 C         2.183945        -0.709884         1.184243
 H         2.686612        -3.264028        -0.052968
 H         3.983969        -2.505451        -1.277985
 H         4.425458        -3.003809         0.227584
 H        -0.036340         1.204801        -0.728922
 H         0.024288        -0.365708        -1.509561
 H        -0.492898        -0.280475         0.047433
 H         2.013314         2.150672        -0.498021
 H         1.598128         1.786940         1.270792
 H         4.258768        -0.229666         2.040321
 H         1.521657        -0.860746         1.968591
