19
Iteration:  1871
 C         3.643386        -2.588861        -0.092056
 C         3.104706        -1.194734         0.051215
 O         2.485087        -0.515140        -0.978583
 C         1.522574         0.206247         0.023129
 C         0.051497        -0.098001        -0.124747
 C         2.228952         1.592632         0.096432
 O         3.594055         1.294538         0.446429
 C         3.654620        -0.025875         0.971478
 C         2.236558        -0.523382         1.124293
 H         4.346610        -2.806618         0.746985
 H         2.795007        -3.279143        -0.065435
 H         4.123574        -2.622838        -1.101818
 H        -0.026718        -1.145605         0.169872
 H        -0.714777         0.518075         0.394976
 H        -0.313306        -0.114772        -1.162030
 H         2.078264         2.263605        -0.780166
 H         1.856369         2.137446         1.061948
 H         4.413390        -0.142700         1.795442
 H         1.924667        -1.087537         1.964083
