19
Iteration:  2463
 C         3.817333        -2.442712        -0.153211
 C         3.039864        -1.178054         0.040861
 O         2.492199        -0.474170        -1.083950
 C         1.645035         0.216763        -0.063223
 C         0.105381         0.083459        -0.395859
 C         2.327318         1.610270         0.220336
 O         3.559506         1.211586         0.774456
 C         3.466158        -0.212346         1.164272
 C         2.035134        -0.686256         1.005720
 H         3.370431        -3.170397        -0.789234
 H         4.842905        -2.117137        -0.414351
 H         3.908597        -2.875612         0.852747
 H        -0.497986         0.118213         0.546773
 H        -0.488636         0.529294        -1.216566
 H         0.031763        -1.080485        -0.609255
 H         2.536849         2.141107        -0.754645
 H         1.693717         2.155057         0.890896
 H         4.247353        -0.477223         1.932819
 H         1.345921        -1.111740         1.801132
