19
Iteration:   572charge 0 multiplicity 1
 C         3.628873        -2.636475         0.025948
 C         3.185797        -1.161038         0.157586
 O         2.125425        -0.692511        -0.812000
 C         1.558546         0.123062         0.197972
 C         0.011549        -0.210475         0.137704
 C         2.166230         1.585874        -0.109351
 O         3.653640         1.381348        -0.025388
 C         3.784290         0.131131         0.717749
 C         2.466925        -0.352425         1.296769
 H         4.478998        -2.894733         0.585110
 H         2.786267        -3.334106         0.361960
 H         3.810525        -2.926714        -0.983294
 H        -0.264925        -0.297010        -0.915782
 H        -0.092722        -1.078708         0.797983
 H        -0.631997         0.555315         0.583734
 H         1.890404         1.778669        -1.128697
 H         1.925745         2.527097         0.518024
 H         4.720258        -0.018968         1.168794
 H         2.334925        -0.483585         2.416953
