19
Iteration:  4169charge 0 multiplicity 1
 C         3.854142        -2.468066         0.087347
 C         3.050133        -1.224936         0.198372
 O         2.412311        -0.630210        -0.996755
 C         1.546775         0.165383        -0.066570
 C         0.110316         0.300242        -0.495186
 C         2.349568         1.447199         0.002070
 O         3.619410         1.159377         0.503890
 C         3.495475        -0.091412         1.142790
 C         2.030844        -0.577239         1.228983
 H         3.369546        -3.024916        -0.711734
 H         4.904049        -2.105112        -0.132646
 H         3.917930        -3.229396         0.914397
 H        -0.232375         1.426710        -0.329347
 H        -0.098625        -0.005329        -1.496953
 H        -0.580792        -0.201917         0.228745
 H         2.455316         1.765759        -1.068577
 H         1.993495         2.357167         0.603548
 H         4.212509        -0.523113         1.795512
 H         1.354779        -0.950286         2.024553
