19
Iteration:  2447charge 0 multiplicity 1
 C         3.757376        -2.543283        -0.177128
 C         3.079147        -1.145619         0.049558
 O         2.467444        -0.387618        -1.047652
 C         1.532276         0.291459        -0.100443
 C         0.188045        -0.062795        -0.449339
 C         2.254134         1.583285         0.217095
 O         3.575936         1.183554         0.812061
 C         3.492056        -0.129726         1.107468
 C         2.130480        -0.659569         1.138212
 H         2.994520        -3.081828        -0.856992
 H         4.688838        -2.531478        -0.734444
 H         3.963724        -3.014687         0.793987
 H        -0.562351         0.505057         0.105661
 H         0.215612         0.336107        -1.471027
 H        -0.010341        -1.070826        -0.394944
 H         2.505665         2.154811        -0.667524
 H         1.726958         2.258159         0.954832
 H         4.101016        -0.506578         1.913974
 H         1.531703        -1.182908         1.822537
