19
Iteration:  3621
 C         3.851310        -2.505165        -0.020175
 C         2.935948        -1.280812         0.217619
 O         2.426673        -0.569609        -0.960065
 C         1.578696         0.210153        -0.158023
 C         0.172001         0.224294        -0.448979
 C         2.367057         1.500096        -0.058998
 O         3.582111         1.167327         0.612658
 C         3.448426        -0.135026         1.199825
 C         2.070669        -0.565807         1.198702
 H         3.532079        -3.488603        -0.133809
 H         4.568697        -2.229875        -0.883401
 H         4.391592        -2.433149         0.929641
 H        -0.024334         0.303671        -1.546164
 H        -0.416033        -0.668934        -0.125134
 H        -0.236587         1.140787         0.077049
 H         2.554078         1.868253        -1.119268
 H         1.905472         2.349399         0.480404
 H         4.172335        -0.515003         1.877319
 H         1.369299        -0.672557         1.961894
