19
Iteration:    28charge 0 multiplicity 1
 C         4.024033        -2.362055        -0.041199
 C         2.979040        -1.277788         0.179652
 O         1.979720        -0.858427        -0.775135
 C         1.534131         0.195968         0.122741
 C        -0.032749         0.053794         0.143948
 C         2.336732         1.523477        -0.327469
 O         3.707617         1.279750         0.106503
 C         3.623399        -0.047788         0.819678
 C         2.330749        -0.422147         1.370639
 H         4.921533        -2.402056         0.643286
 H         3.596560        -3.397317         0.093357
 H         4.382866        -2.162527        -1.092487
 H        -0.451011         1.024283         0.531753
 H        -0.260143        -0.225838        -0.920000
 H        -0.424623        -0.605082         0.967419
 H         2.258783         1.582079        -1.442839
 H         1.992301         2.543456         0.031106
 H         4.556666        -0.219343         1.356557
 H         1.922512        -0.254304         2.421431
