19
Iteration:  3291charge 0 multiplicity 1
 C         3.803982        -2.600962         0.192269
 C         3.020348        -1.246224         0.080506
 O         2.502297        -0.544411        -1.076116
 C         1.633480         0.158656        -0.112868
 C         0.085218         0.243277        -0.422852
 C         2.349225         1.538706        -0.051825
 O         3.527045         1.257656         0.719612
 C         3.463994        -0.084349         1.123924
 C         2.077090        -0.630449         1.085061
 H         3.276982        -3.527705         0.239634
 H         4.419526        -2.867923        -0.711030
 H         4.524243        -2.461221         0.994624
 H        -0.222504         0.897134        -1.206386
 H        -0.393103        -0.663051        -0.850101
 H        -0.458865         0.422445         0.461215
 H         2.609105         1.774969        -1.073562
 H         1.973859         2.478536         0.508575
 H         4.233126        -0.457245         1.848691
 H         1.417920        -0.952611         1.877357
