19
Iteration:   406charge 0 multiplicity 1
 C         3.907920        -2.446756        -0.082629
 C         3.070398        -1.243176         0.175585
 O         2.101767        -0.941691        -0.775011
 C         1.513998         0.131734         0.173194
 C        -0.008912         0.173685         0.117198
 C         2.238289         1.474530        -0.188803
 O         3.563401         1.351308         0.139878
 C         3.719810         0.108665         0.707428
 C         2.441738        -0.466974         1.328389
 H         4.668414        -2.547768         0.713618
 H         3.304967        -3.416009        -0.001704
 H         4.326300        -2.325129        -1.039810
 H        -0.426590         0.164342        -0.886847
 H        -0.450702        -0.640889         0.710273
 H        -0.438109         1.113002         0.485947
 H         2.116316         1.690645        -1.255257
 H         1.678169         2.220974         0.328949
 H         4.749929        -0.124950         1.162328
 H         2.271164        -0.878288         2.288739
