19
Iteration:   635charge 0 multiplicity 1
 C         4.101631        -2.383331        -0.060409
 C         3.204499        -1.211925         0.116756
 O         2.036604        -1.037871        -0.804117
 C         1.456813         0.092475         0.167813
 C        -0.029666         0.412569         0.328191
 C         2.147494         1.419175        -0.283918
 O         3.542178         1.268831         0.088079
 C         3.673816         0.014175         0.764219
 C         2.406341        -0.458343         1.226515
 H         4.490186        -2.621763         0.958961
 H         3.512376        -3.331697        -0.310963
 H         4.963814        -2.096186        -0.626068
 H        -0.461701         1.070414        -0.478986
 H        -0.543542        -0.518870         0.169501
 H        -0.249000         0.862961         1.299303
 H         2.002402         1.457854        -1.367959
 H         1.749605         2.295219         0.213025
 H         4.604783        -0.114795         1.282608
 H         2.176440        -0.735496         2.307786
