19
Iteration:   205
 C         3.824765        -2.503271        -0.141525
 C         3.175813        -1.196966         0.136666
 O         2.053986        -0.807716        -0.711559
 C         1.531625         0.153911         0.213255
 C        -0.028677         0.045856         0.062131
 C         2.151040         1.440501        -0.218686
 O         3.635278         1.352481         0.132037
 C         3.723772         0.056086         0.772243
 C         2.475563        -0.417239         1.357918
 H         4.625230        -2.623705         0.588739
 H         3.126677        -3.323097        -0.054366
 H         4.271474        -2.602927        -1.224585
 H        -0.155790        -0.276722        -1.046827
 H        -0.436932        -0.720859         0.778165
 H        -0.460758         1.045653         0.376028
 H         2.184265         1.530751        -1.330742
 H         1.652014         2.306737         0.281717
 H         4.683962         0.030619         1.405021
 H         2.276851        -0.434632         2.426601
