19
Iteration:  1846charge 0 multiplicity 1
 C         3.613702        -2.545982        -0.092559
 C         3.222501        -1.207973         0.090793
 O         2.313827        -0.560863        -0.992443
 C         1.621388         0.020537         0.052741
 C         0.153304         0.036430        -0.233269
 C         2.162335         1.550629         0.253231
 O         3.521239         1.353526         0.373268
 C         3.681858         0.022713         0.933245
 C         2.321752        -0.589518         1.202150
 H         3.575141        -2.970868         0.949120
 H         2.842494        -2.978291        -0.769785
 H         4.555465        -2.629874        -0.624676
 H        -0.364514        -0.761966         0.266313
 H        -0.392627         0.928046        -0.149987
 H        -0.013155        -0.282060        -1.262447
 H         1.922314         2.123506        -0.692617
 H         1.811269         2.142690         1.137254
 H         4.535315         0.003311         1.618232
 H         1.899175        -1.097648         2.067861
