19
Iteration:  1932
 C         3.917447        -2.474968        -0.179329
 C         3.161788        -1.236507         0.141372
 O         2.287012        -0.709414        -0.927092
 C         1.501980         0.068771         0.021389
 C        -0.035883         0.288919        -0.267417
 C         2.213653         1.481281        -0.070984
 O         3.611330         1.370832         0.593820
 C         3.545502        -0.027186         1.021720
 C         2.249718        -0.697686         1.247527
 H         4.957915        -2.298804        -0.560998
 H         3.970327        -3.179725         0.673363
 H         3.351924        -3.183367        -0.832009
 H        -0.415011        -0.386810        -1.046852
 H        -0.375885        -0.043299         0.691335
 H        -0.140330         1.344239        -0.571817
 H         2.318175         1.921625        -1.084444
 H         1.784751         2.233475         0.547704
 H         4.597105        -0.239555         1.427287
 H         1.970470        -0.987391         2.237583
