19
Iteration:  3777
 C         3.709243        -2.511564         0.117138
 C         3.140191        -1.152591         0.154283
 O         2.363022        -0.732153        -0.983545
 C         1.575174         0.169572        -0.037460
 C         0.126558         0.259901        -0.532559
 C         2.335170         1.528120         0.006215
 O         3.601356         1.245238         0.572610
 C         3.546331        -0.087872         1.050191
 C         2.123945        -0.577683         1.216213
 H         2.972032        -3.203263        -0.373420
 H         4.663169        -2.599029        -0.327214
 H         3.889340        -2.752232         1.138063
 H        -0.527058         0.505003         0.328303
 H         0.203556         1.118882        -1.277858
 H        -0.236955        -0.673672        -1.010437
 H         2.375898         1.699098        -1.118806
 H         1.649741         2.096981         0.598456
 H         4.154577        -0.451989         1.848674
 H         1.798221        -0.889045         2.196280
