19
Iteration:   630charge 0 multiplicity 1
 C         4.082199        -2.379174        -0.072042
 C         3.198816        -1.275554         0.131925
 O         2.057302        -1.000260        -0.787998
 C         1.451322         0.092983         0.156101
 C        -0.010668         0.390602         0.352717
 C         2.185893         1.429656        -0.308291
 O         3.545540         1.254981         0.089294
 C         3.652294         0.034705         0.763837
 C         2.363133        -0.437800         1.207704
 H         4.492662        -2.526408         0.956019
 H         3.585678        -3.273270        -0.312247
 H         4.961067        -2.117497        -0.739831
 H        -0.450679         0.831658        -0.536389
 H        -0.643892        -0.536423         0.204524
 H        -0.152110         0.849882         1.345789
 H         1.931648         1.507023        -1.395601
 H         1.715606         2.253699         0.306372
 H         4.555372        -0.083053         1.446671
 H         2.320189        -0.665116         2.221061
