19
Iteration:  3444
 C         3.777817        -2.534262        -0.010466
 C         3.238638        -1.181453         0.170903
 O         2.416691        -0.702048        -1.022453
 C         1.604090         0.071498        -0.075488
 C         0.146723         0.358522        -0.489006
 C         2.333780         1.483930        -0.131140
 O         3.491875         1.260955         0.730698
 C         3.464190        -0.052661         1.202444
 C         2.079212        -0.637854         1.185610
 H         2.951049        -3.144063        -0.034199
 H         4.378447        -2.531727        -0.947722
 H         4.360536        -2.863340         0.875177
 H        -0.052883         1.248827        -1.189870
 H        -0.459853        -0.506871        -0.786844
 H        -0.363737         0.737708         0.417385
 H         2.680974         1.645307        -1.138218
 H         1.690340         2.221266         0.293512
 H         4.178493        -0.161729         2.060479
 H         1.418414        -1.090133         2.004349
