19
Iteration:  3815
 C         3.856518        -2.632726         0.195709
 C         3.129220        -1.271174         0.137096
 O         2.417806        -0.781398        -1.026019
 C         1.539446         0.224419        -0.062524
 C         0.097642         0.350819        -0.425661
 C         2.336232         1.569093        -0.019586
 O         3.604665         1.292272         0.525980
 C         3.409852        -0.133608         1.083009
 C         2.068124        -0.561247         1.114118
 H         3.220068        -3.498549         0.367605
 H         4.516837        -2.587379        -0.771041
 H         4.660378        -2.711150         1.011025
 H        -0.578167        -0.077861         0.349095
 H        -0.160966         1.384171        -0.544060
 H        -0.228488        -0.085527        -1.383684
 H         2.564942         2.059526        -0.934727
 H         1.917035         2.400778         0.602931
 H         3.991512        -0.297047         2.050451
 H         1.542141        -0.720363         2.095175
