19
Iteration:  1058charge 0 multiplicity 1
 C         3.832949        -2.428985         0.192983
 C         3.090828        -1.157714         0.086164
 O         2.025025        -0.810514        -0.877857
 C         1.540815         0.197450         0.114500
 C        -0.020422        -0.052693         0.332344
 C         2.329410         1.534998        -0.275074
 O         3.614399         1.285249        -0.041520
 C         3.732530         0.061604         0.689334
 C         2.444001        -0.448650         1.278082
 H         4.070020        -2.635462         1.261171
 H         3.216354        -3.325343        -0.115107
 H         4.846774        -2.221920        -0.237388
 H        -0.695618         0.522311        -0.330416
 H        -0.355342        -1.079027         0.273483
 H        -0.295199         0.245755         1.372091
 H         2.157673         1.676443        -1.390055
 H         1.784423         2.353885         0.367016
 H         4.613322        -0.282856         1.368440
 H         2.069280        -0.725286         2.209031
