19
Iteration:  1622
 C         3.820512        -2.531259        -0.123458
 C         3.165753        -1.187530         0.116066
 O         2.155976        -0.711149        -0.937530
 C         1.558126         0.108247         0.131226
 C         0.037888         0.008936         0.037776
 C         2.233498         1.495369        -0.149246
 O         3.593198         1.343999         0.354339
 C         3.657912         0.054159         0.902951
 C         2.328722        -0.484045         1.266648
 H         4.281396        -3.041195         0.699865
 H         3.055334        -3.197590        -0.521636
 H         4.607240        -2.333449        -0.878220
 H        -0.200400        -0.091980        -1.013383
 H        -0.468213        -0.830619         0.524134
 H        -0.414798         0.923461         0.380104
 H         2.312138         1.928843        -1.153980
 H         1.693739         2.233378         0.521001
 H         4.581469         0.048449         1.431051
 H         1.981653        -0.735330         2.269524
