19
Iteration:  2678
 C         3.963450        -2.405911        -0.172050
 C         3.127903        -1.163076         0.175258
 O         2.484229        -0.551511        -0.958268
 C         1.585217         0.228072        -0.073656
 C         0.053511         0.237326        -0.490356
 C         2.294371         1.506767         0.129268
 O         3.601939         1.067464         0.605691
 C         3.353033        -0.135274         1.206738
 C         1.962297        -0.686896         1.153068
 H         3.540938        -3.079019        -0.989905
 H         5.000951        -2.113322        -0.559191
 H         4.304016        -3.043515         0.707831
 H        -0.200165         1.214677        -0.890382
 H        -0.330568        -0.575538        -1.051248
 H        -0.569610         0.162095         0.479243
 H         2.478802         1.822864        -0.886871
 H         1.731020         2.167416         0.766627
 H         4.214535        -0.294569         1.941870
 H         1.423160        -0.897330         2.102890
