19
Iteration:    33charge 0 multiplicity 1
 C         4.011951        -2.304634        -0.068188
 C         2.978281        -1.264585         0.214144
 O         1.993162        -0.882428        -0.757474
 C         1.504138         0.128354         0.115271
 C        -0.071481         0.084529         0.153687
 C         2.367623         1.509193        -0.341849
 O         3.746040         1.289771         0.094907
 C         3.603705        -0.008434         0.842449
 C         2.314713        -0.484372         1.373043
 H         4.886091        -2.308816         0.552135
 H         3.613944        -3.300039         0.000708
 H         4.359334        -2.131906        -1.102068
 H        -0.365694         1.119617         0.388896
 H        -0.331748        -0.239745        -0.836282
 H        -0.459767        -0.525859         0.946811
 H         2.369170         1.550882        -1.436540
 H         2.061386         2.476426         0.018920
 H         4.561064        -0.199894         1.334461
 H         2.008006        -0.294774         2.381194
