19
Iteration:  4692
 C         3.655585        -2.479029        -0.204363
 C         3.119233        -1.185205         0.161608
 O         2.439525        -0.628234        -0.901975
 C         1.623780         0.173339        -0.043464
 C         0.271276         0.130126        -0.563767
 C         2.224643         1.541809         0.076908
 O         3.525695         1.249147         0.697266
 C         3.554058        -0.137745         1.153792
 C         2.099451        -0.599112         1.179701
 H         3.070781        -3.130732        -0.757992
 H         4.475884        -2.249348        -0.938638
 H         4.098933        -2.952123         0.717090
 H        -0.302927         0.751936         0.142948
 H         0.153758         0.584681        -1.463008
 H        -0.295562        -0.813783        -0.396607
 H         2.358443         1.977717        -0.933128
 H         1.870707         2.262264         0.857377
 H         4.212083        -0.177239         2.072996
 H         1.389366        -0.925250         1.972840
