19
Iteration:  4318charge 0 multiplicity 1
 C         3.718499        -2.582875         0.221670
 C         3.147399        -1.239489         0.166144
 O         2.399370        -0.635022        -1.003269
 C         1.580781         0.177149        -0.092824
 C         0.058466         0.266715        -0.515972
 C         2.307000         1.479987         0.022806
 O         3.624960         1.253447         0.590156
 C         3.556058        -0.060819         0.996377
 C         2.119184        -0.550488         1.159821
 H         3.066420        -3.386637        -0.151380
 H         4.685962        -2.710118        -0.383697
 H         3.897340        -2.654388         1.268909
 H        -0.520886        -0.181662         0.273218
 H        -0.348961         1.284597        -0.864630
 H        -0.126269        -0.369638        -1.401433
 H         2.531664         1.872125        -0.968991
 H         1.711920         2.193185         0.694323
 H         4.275406        -0.127778         1.774255
 H         1.643170        -1.100168         1.986665
