19
Iteration:  1934charge 0 multiplicity 1
 C         3.919397        -2.484691        -0.188200
 C         3.172107        -1.241272         0.132485
 O         2.287265        -0.711056        -0.926993
 C         1.511016         0.067418         0.020348
 C        -0.040352         0.316911        -0.268653
 C         2.215420         1.472003        -0.067967
 O         3.603446         1.370594         0.585687
 C         3.523470        -0.030590         1.018927
 C         2.271679        -0.694609         1.269017
 H         4.979630        -2.249881        -0.555415
 H         4.063822        -3.119047         0.692004
 H         3.388292        -3.298429        -0.738639
 H        -0.369005        -0.321555        -1.057046
 H        -0.475935         0.008209         0.666033
 H        -0.154863         1.358714        -0.568481
 H         2.286783         1.960657        -1.064427
 H         1.674971         2.166574         0.542706
 H         4.557792        -0.278826         1.445036
 H         1.968261        -1.046535         2.226928
