19
Iteration:  4792charge 0 multiplicity 1
 C         3.719845        -2.531469        -0.262570
 C         3.142022        -1.157034         0.144529
 O         2.473307        -0.612341        -0.983527
 C         1.611806         0.206994        -0.078838
 C         0.130599         0.127439        -0.564401
 C         2.307780         1.514795         0.139533
 O         3.507066         1.247013         0.787953
 C         3.556775        -0.053655         1.187854
 C         2.084523        -0.643131         1.202816
 H         2.867167        -3.110061        -0.661870
 H         4.470043        -2.443359        -1.107763
 H         4.297883        -3.021041         0.546346
 H        -0.007549         0.317093        -1.647886
 H        -0.287448        -0.805486        -0.086014
 H        -0.599254         0.868871        -0.116985
 H         2.593073         2.264469        -0.608832
 H         1.623096         2.119514         0.794553
 H         4.293048        -0.239791         1.933423
 H         1.477459        -1.075899         1.982530
