19
Iteration:  2320
 C         4.004058        -2.342810        -0.274901
 C         3.019962        -1.303314         0.027790
 O         2.429886        -0.546166        -1.053296
 C         1.596264         0.164647        -0.136256
 C         0.057795         0.282051        -0.368199
 C         2.357687         1.557616         0.107156
 O         3.498751         1.197671         0.911723
 C         3.415739        -0.223690         1.260239
 C         2.074773        -0.757680         1.061228
 H         3.454164        -3.113368        -0.761310
 H         4.914670        -1.919357        -0.794458
 H         4.403694        -2.786187         0.674283
 H        -0.124792         0.434703        -1.434355
 H        -0.508619        -0.590735        -0.024750
 H        -0.367797         1.158909         0.213789
 H         2.825780         2.004306        -0.837811
 H         1.618690         2.145929         0.674211
 H         4.263280        -0.391252         1.861049
 H         1.392256        -1.297733         1.694341
