19
Iteration:  4585charge 0 multiplicity 1
 C         3.814895        -2.553882         0.013844
 C         3.106104        -1.223566         0.069431
 O         2.477134        -0.584530        -1.045647
 C         1.550710         0.194083        -0.033982
 C         0.151629         0.303847        -0.529476
 C         2.261062         1.503099         0.109820
 O         3.543161         1.250621         0.634240
 C         3.468063        -0.146182         1.169040
 C         2.103337        -0.671035         1.182643
 H         3.132335        -3.338408        -0.360592
 H         4.791988        -2.552934        -0.524754
 H         4.073569        -2.846396         1.065868
 H        -0.139797        -0.669981        -0.926588
 H        -0.610555         0.608204         0.218162
 H         0.167620         1.169825        -1.235671
 H         2.408239         1.810964        -0.914696
 H         1.690202         2.287412         0.566964
 H         4.213177        -0.438586         1.943392
 H         1.529442        -0.968452         2.090458
