19
Iteration:  4880
 C         3.823182        -2.529465        -0.039523
 C         3.157381        -1.159686         0.026956
 O         2.464252        -0.495958        -1.084001
 C         1.590887         0.233847        -0.104232
 C         0.174633         0.244714        -0.471294
 C         2.145320         1.524164         0.301453
 O         3.527110         1.227706         0.774408
 C         3.526554        -0.208347         1.128900
 C         2.108169        -0.737350         1.013596
 H         3.220051        -3.355207        -0.602955
 H         4.619232        -2.493469        -0.855623
 H         4.253283        -2.827729         0.933576
 H        -0.291466        -0.785923        -0.559683
 H        -0.495991         0.763574         0.399746
 H         0.096726         0.778749        -1.463950
 H         2.241587         2.246572        -0.554723
 H         1.453687         1.924150         1.053709
 H         4.342604        -0.477759         1.794858
 H         1.437758        -1.294885         1.656511
