19
Iteration:  2097charge 0 multiplicity 1
 C         3.903797        -2.436755        -0.146969
 C         3.144069        -1.218971         0.070620
 O         2.447496        -0.537303        -0.941513
 C         1.521275         0.138788        -0.023877
 C         0.050607         0.191715        -0.377433
 C         2.222080         1.523674         0.232003
 O         3.593195         1.170926         0.560710
 C         3.476327        -0.143789         1.064150
 C         2.119892        -0.650002         1.109778
 H         4.049006        -2.944423         0.819067
 H         3.325743        -3.059497        -0.799156
 H         4.800361        -2.182181        -0.673660
 H        -0.587413        -0.025189         0.488310
 H        -0.199989         1.226885        -0.674731
 H        -0.221245        -0.529661        -1.173116
 H         2.436113         2.113828        -0.709362
 H         1.716481         2.251157         0.953932
 H         4.229294        -0.277188         1.789183
 H         1.595681        -0.976394         2.048424
