19
Iteration:  1628
 C         3.809406        -2.513251        -0.124937
 C         3.183779        -1.215472         0.155578
 O         2.164396        -0.690227        -0.966173
 C         1.525857         0.144603         0.111385
 C         0.024832        -0.033788         0.032988
 C         2.271480         1.517126        -0.119061
 O         3.615042         1.323194         0.350669
 C         3.642061         0.072670         0.886806
 C         2.342789        -0.471593         1.246375
 H         4.380623        -2.934257         0.768045
 H         2.882225        -3.122800        -0.279535
 H         4.484105        -2.393210        -0.987612
 H        -0.287612        -0.310606        -1.015896
 H        -0.283916        -0.893279         0.686668
 H        -0.532419         0.910493         0.359021
 H         2.092178         1.916879        -1.138487
 H         1.865545         2.245109         0.576645
 H         4.532215        -0.068272         1.546264
 H         1.842539        -0.881907         2.170808
