19
Iteration:  4286
 C         3.543156        -2.622998        -0.005726
 C         3.131122        -1.190482         0.272184
 O         2.481865        -0.659693        -0.929983
 C         1.645580         0.240399        -0.108269
 C         0.226045         0.063730        -0.492181
 C         2.324381         1.549290        -0.000062
 O         3.606980         1.237161         0.509646
 C         3.491442        -0.022411         1.131982
 C         2.068343        -0.442874         1.200393
 H         2.690918        -3.252749         0.087341
 H         4.198389        -2.541174        -0.950753
 H         4.199767        -3.019576         0.749504
 H        -0.341251        -0.429255         0.300189
 H        -0.334409         1.003531        -0.847997
 H         0.279456        -0.771650        -1.196251
 H         2.483534         2.116779        -0.930547
 H         1.746759         2.271401         0.731774
 H         4.169028        -0.048415         1.950796
 H         1.382528        -0.865848         1.967668
