19
Iteration:  4101
 C         3.569455        -2.570205         0.092483
 C         3.055899        -1.238483         0.187545
 O         2.511275        -0.613406        -0.973428
 C         1.637415         0.201686        -0.120438
 C         0.168350         0.196686        -0.506404
 C         2.330845         1.599405         0.019289
 O         3.540703         1.254485         0.567315
 C         3.539271        -0.060141         1.139206
 C         2.164558        -0.629666         1.170663
 H         2.831559        -3.237997        -0.358651
 H         4.558510        -2.480191        -0.542059
 H         3.855652        -3.031608         1.001148
 H        -0.434770         0.913492         0.071572
 H         0.024131         0.200909        -1.648867
 H        -0.241865        -0.740958        -0.100752
 H         2.389789         1.835376        -1.056059
 H         1.580101         2.269963         0.589656
 H         4.357632        -0.165566         1.893388
 H         1.713483        -1.211956         1.976930
