19
Iteration:  2734charge 0 multiplicity 1
 C         3.870397        -2.522059        -0.067305
 C         3.135047        -1.159064         0.056223
 O         2.337769        -0.612522        -1.007897
 C         1.583659         0.165468        -0.017084
 C         0.109366         0.242761        -0.536804
 C         2.240313         1.512052         0.059805
 O         3.590978         1.230164         0.830036
 C         3.508033        -0.090215         1.082066
 C         2.098738        -0.679304         1.174834
 H         3.287256        -3.439867        -0.260473
 H         4.573457        -2.466259        -0.979988
 H         4.615960        -2.619859         0.797026
 H        -0.511175         1.035034        -0.108448
 H         0.208147         0.512168        -1.555025
 H        -0.459528        -0.716687        -0.408158
 H         2.556476         1.925452        -0.909655
 H         1.579508         2.224571         0.490568
 H         4.153429        -0.205138         1.948225
 H         1.636363        -1.172693         1.937067
