19
Iteration:   292
 C         3.792297        -2.587995         0.046478
 C         3.141216        -1.220654         0.155083
 O         2.103994        -0.766580        -0.805782
 C         1.559944         0.147751         0.175965
 C         0.046667         0.035021         0.158596
 C         2.176181         1.442276        -0.198137
 O         3.538130         1.359590         0.044376
 C         3.762046         0.096196         0.666613
 C         2.451696        -0.389589         1.318620
 H         4.234609        -2.758570         1.033176
 H         3.078458        -3.343366        -0.192529
 H         4.626287        -2.601440        -0.757771
 H        -0.474098         0.996261        -0.127783
 H        -0.215764        -0.947708        -0.269684
 H        -0.375215        -0.027648         1.209814
 H         2.020393         1.630275        -1.281360
 H         1.680557         2.269652         0.313040
 H         4.804119         0.042765         1.094613
 H         2.228554        -0.428447         2.382609
