19
Iteration:  2929charge 0 multiplicity 1
 C         3.794702        -2.519621        -0.007248
 C         3.036217        -1.206464         0.150642
 O         2.358039        -0.627372        -1.023147
 C         1.626113         0.178710        -0.072478
 C         0.105671         0.093887        -0.531820
 C         2.349604         1.595787         0.056983
 O         3.677945         1.177287         0.641513
 C         3.508790        -0.054155         1.133189
 C         2.015807        -0.505850         1.206768
 H         3.144646        -3.367037        -0.004879
 H         4.370340        -2.484424        -0.909791
 H         4.415658        -2.770870         0.854254
 H         0.065090        -0.460809        -1.497188
 H        -0.494910        -0.406608         0.252592
 H        -0.387792         1.089244        -0.754438
 H         2.567374         2.075096        -0.870154
 H         1.775931         2.249007         0.754523
 H         4.189028        -0.332286         1.987770
 H         1.586984        -0.781977         2.176873
