19
Iteration:   296charge 0 multiplicity 1
 C         3.753022        -2.601025         0.048248
 C         3.131800        -1.162075         0.145565
 O         2.109948        -0.775763        -0.817984
 C         1.562132         0.101457         0.207037
 C         0.052055         0.005939         0.157876
 C         2.162042         1.459189        -0.195641
 O         3.567544         1.380749         0.046477
 C         3.762741         0.098345         0.644536
 C         2.479640        -0.353567         1.333428
 H         4.247928        -2.878442         1.042061
 H         2.979668        -3.365411        -0.254064
 H         4.522482        -2.703924        -0.682344
 H        -0.387525         0.919648        -0.265519
 H        -0.197016        -0.930611        -0.379179
 H        -0.347213        -0.122287         1.194289
 H         2.012509         1.592260        -1.269886
 H         1.632307         2.277829         0.364957
 H         4.663884         0.057917         1.171089
 H         2.236622        -0.506245         2.430587
