19
Iteration:  1812
 C         3.886860        -2.573182        -0.159314
 C         3.158426        -1.172956         0.101791
 O         2.232342        -0.660185        -0.920634
 C         1.522281         0.071961         0.048268
 C        -0.042566         0.178184        -0.267220
 C         2.204210         1.602589         0.153090
 O         3.517375         1.287696         0.431102
 C         3.694163        -0.039457         0.937687
 C         2.390785        -0.582580         1.254988
 H         3.384460        -3.448450         0.323241
 H         3.834859        -2.857653        -1.256720
 H         4.924769        -2.717982         0.119218
 H        -0.599904        -0.422256         0.446453
 H        -0.395265         1.167985        -0.185054
 H        -0.128112        -0.245475        -1.254037
 H         1.870496         1.982206        -0.842386
 H         1.805879         2.310728         0.951630
 H         4.559244        -0.131020         1.530115
 H         2.024556        -0.895815         2.281916
