19
Iteration:  2161charge 0 multiplicity 1
 C         3.926957        -2.461484        -0.307406
 C         3.151777        -1.210116         0.079204
 O         2.355437        -0.643062        -1.000585
 C         1.572190         0.181563        -0.013143
 C         0.064711         0.241386        -0.447801
 C         2.318174         1.533886         0.165275
 O         3.502060         1.308536         0.889891
 C         3.476478        -0.098232         1.108534
 C         2.151836        -0.726631         1.142427
 H         5.005428        -2.371190        -0.326240
 H         3.662207        -3.283588         0.300138
 H         3.632578        -2.745666        -1.296574
 H        -0.417428         1.221038        -0.311608
 H         0.013036        -0.004336        -1.521617
 H        -0.553522        -0.525038         0.087124
 H         2.599035         1.890580        -0.811031
 H         1.604989         2.144543         0.650411
 H         4.284364        -0.571572         1.547151
 H         1.551142        -1.326917         1.860892
