19
Iteration:  1661
 C         3.677575        -2.541801        -0.029022
 C         3.074571        -1.155921         0.146539
 O         2.344481        -0.517515        -1.034864
 C         1.571318         0.157682         0.066559
 C         0.106501        -0.163938         0.029881
 C         2.211175         1.575734         0.037088
 O         3.577278         1.256358         0.238288
 C         3.638606         0.023232         0.857769
 C         2.346463        -0.483830         1.244441
 H         4.775884        -2.540770         0.291995
 H         3.138458        -3.246358         0.640956
 H         3.473086        -2.976920        -1.008013
 H        -0.054546        -0.703515        -0.938362
 H        -0.251222        -0.732581         0.903804
 H        -0.475374         0.814037        -0.045131
 H         1.940665         2.186037        -0.832516
 H         1.993252         2.091942         0.969719
 H         4.486125        -0.244857         1.453773
 H         1.763376        -0.797318         2.168229
