19
Iteration:  2267
 C         3.819502        -2.473022        -0.345256
 C         3.094688        -1.181268         0.090911
 O         2.418904        -0.490403        -0.976112
 C         1.517952         0.193081         0.046818
 C         0.161427         0.233199        -0.654558
 C         2.199686         1.492973         0.310608
 O         3.550237         1.193015         0.809173
 C         3.546521        -0.129083         1.155478
 C         2.151866        -0.785405         1.159313
 H         3.795834        -2.577595        -1.453037
 H         4.888445        -2.078222        -0.175508
 H         3.620453        -3.435906         0.223463
 H         0.213701        -0.049871        -1.670966
 H        -0.296352        -0.564264        -0.109850
 H        -0.592401         1.033745        -0.539247
 H         2.424222         2.172434        -0.491228
 H         1.466175         2.122487         0.919322
 H         4.293028        -0.166607         1.886672
 H         1.827981        -1.308279         2.050163
