19
Iteration:  1618
 C         3.817549        -2.531079        -0.133336
 C         3.134755        -1.152299         0.094502
 O         2.171538        -0.742256        -0.900305
 C         1.567866         0.098707         0.110120
 C         0.050819         0.041761         0.037286
 C         2.194820         1.493959        -0.138759
 O         3.572496         1.362204         0.344150
 C         3.682505         0.038192         0.904283
 C         2.332708        -0.509840         1.280200
 H         4.235705        -3.066354         0.775068
 H         3.233836        -3.257822        -0.724467
 H         4.662207        -2.371761        -0.826907
 H        -0.151684         0.071123        -1.078146
 H        -0.503456        -0.820751         0.478455
 H        -0.405358         1.011939         0.447433
 H         2.400252         1.805931        -1.174268
 H         1.638504         2.250772         0.432892
 H         4.621314        -0.013768         1.467153
 H         2.034705        -0.685557         2.361776
