19
Iteration:  3122
 C         3.752830        -2.486622         0.067172
 C         3.066104        -1.163981         0.131730
 O         2.376247        -0.667957        -1.031648
 C         1.586701         0.149277        -0.073993
 C         0.178754         0.185863        -0.599373
 C         2.373147         1.594032         0.056853
 O         3.548566         1.224633         0.700880
 C         3.563681        -0.086669         1.117688
 C         2.067598        -0.619082         1.172504
 H         3.013005        -3.274030         0.095387
 H         4.501995        -2.614505        -0.616220
 H         4.149506        -2.567504         1.093342
 H        -0.085833         1.033460        -1.273356
 H         0.063861        -0.643900        -1.214384
 H        -0.621227         0.059380         0.163330
 H         2.439876         1.896561        -0.998174
 H         1.798789         2.150924         0.774509
 H         4.351420        -0.414719         1.788151
 H         1.575431        -0.810731         2.125680
