19
Iteration:  4698charge 0 multiplicity 1
 C         3.737980        -2.498030        -0.159567
 C         3.061281        -1.206042         0.156473
 O         2.431917        -0.665103        -0.970036
 C         1.624728         0.210683        -0.066726
 C         0.238878         0.180767        -0.519473
 C         2.202571         1.567475         0.101189
 O         3.549976         1.225767         0.696702
 C         3.537483        -0.098827         1.162654
 C         2.105818        -0.653911         1.189129
 H         3.134695        -3.158106        -0.926639
 H         4.583745        -2.243279        -0.812747
 H         4.155414        -2.923976         0.734480
 H        -0.175617         0.986700         0.147927
 H         0.053024         0.370749        -1.705439
 H        -0.298498        -0.733221        -0.276353
 H         2.463173         2.161716        -0.792166
 H         1.712650         2.267381         0.778708
 H         4.176636        -0.230999         1.997912
 H         1.429752        -0.902829         1.986997
