19
Iteration:  2572charge 0 multiplicity 1
 C         3.734993        -2.486714        -0.238793
 C         3.111716        -1.201368         0.155794
 O         2.574442        -0.424651        -0.975645
 C         1.601512         0.250107        -0.047472
 C         0.159981        -0.024986        -0.505577
 C         2.253354         1.620944         0.238458
 O         3.548432         1.156035         0.740335
 C         3.499755        -0.117328         1.158008
 C         2.038347        -0.648108         1.034539
 H         2.974060        -3.201391        -0.249498
 H         4.085603        -2.390506        -1.274751
 H         4.483136        -2.819097         0.475000
 H        -0.116591        -1.058100        -0.286901
 H        -0.474077         0.453949         0.243525
 H        -0.075664         0.357200        -1.528839
 H         2.179483         2.114113        -0.792211
 H         1.680036         2.242771         0.942265
 H         4.176401        -0.444779         2.035773
 H         1.384555        -1.064268         1.783635
