19
Iteration:  1630
 C         3.797167        -2.508501        -0.122082
 C         3.179081        -1.206939         0.169085
 O         2.176445        -0.688349        -0.968336
 C         1.516598         0.162528         0.089006
 C         0.017583        -0.049133         0.030992
 C         2.275235         1.529146        -0.098749
 O         3.623252         1.318945         0.340618
 C         3.653431         0.070635         0.886612
 C         2.344353        -0.478223         1.236434
 H         4.398579        -2.857116         0.771446
 H         2.914078        -3.097862        -0.202521
 H         4.417794        -2.458292        -1.050243
 H        -0.304654        -0.375641        -0.994567
 H        -0.192508        -0.903174         0.755952
 H        -0.579518         0.880375         0.348576
 H         2.042517         1.857271        -1.111981
 H         1.912178         2.299000         0.614539
 H         4.439519        -0.136199         1.571176
 H         1.805608        -0.931571         2.151625
