19
Iteration:  1943
 C         3.958109        -2.521621        -0.163224
 C         3.145195        -1.219594         0.088456
 O         2.280838        -0.743554        -0.936828
 C         1.550183         0.105287         0.015838
 C        -0.002345         0.365141        -0.251234
 C         2.214185         1.461515         0.002904
 O         3.525510         1.323165         0.541799
 C         3.584047        -0.029183         0.994806
 C         2.278161        -0.683186         1.289902
 H         4.866229        -2.227854        -0.768954
 H         4.358484        -2.759155         0.832058
 H         3.435347        -3.325366        -0.697136
 H        -0.285661        -0.223304        -1.129995
 H        -0.782996         0.228883         0.480538
 H        -0.211798         1.426921        -0.508796
 H         2.268017         1.838105        -1.039309
 H         1.544236         2.051414         0.588346
 H         4.363663        -0.276508         1.804415
 H         1.858743        -1.156668         2.147543
