19
Iteration:   841
 C         4.032699        -2.339310        -0.064707
 C         3.010921        -1.215618         0.197705
 O         1.998087        -0.891999        -0.798553
 C         1.542654         0.197524         0.181360
 C         0.067001         0.084512         0.334225
 C         2.263833         1.448626        -0.314486
 O         3.660017         1.136448        -0.074165
 C         3.631086         0.079990         0.864052
 C         2.277053        -0.348432         1.304509
 H         4.449318        -2.788017         0.814658
 H         3.502991        -3.083057        -0.715448
 H         4.825346        -1.910290        -0.665304
 H        -0.458646         0.670967        -0.446700
 H        -0.248140        -0.885761         0.013889
 H        -0.119062         0.310489         1.433032
 H         2.119085         1.668749        -1.423654
 H         2.065667         2.379960         0.300704
 H         4.582346        -0.127692         1.365680
 H         1.884144        -0.449927         2.355937
