19
Iteration:   642
 C         4.097231        -2.407703        -0.007145
 C         3.142687        -1.148490         0.086369
 O         2.006427        -1.048753        -0.821655
 C         1.500788         0.107374         0.168454
 C        -0.052543         0.400861         0.265816
 C         2.123460         1.370882        -0.244765
 O         3.546339         1.302215         0.077683
 C         3.721338         0.056117         0.717788
 C         2.435635        -0.531745         1.330290
 H         4.534621        -2.756649         0.984932
 H         3.611296        -3.211832        -0.478614
 H         4.964116        -2.196880        -0.706568
 H        -0.264622         1.290236        -0.309583
 H        -0.607190        -0.552747         0.250750
 H        -0.319396         0.805776         1.275425
 H         2.169202         1.486201        -1.366458
 H         1.733852         2.331094         0.120449
 H         4.770678        -0.057851         1.191326
 H         1.974409        -0.780078         2.242121
