19
Iteration:  2302charge 0 multiplicity 1
 C         3.962002        -2.414748        -0.372156
 C         3.175001        -1.162831         0.106002
 O         2.455968        -0.641634        -1.036281
 C         1.572570         0.155031        -0.048280
 C         0.133812         0.379370        -0.423493
 C         2.257854         1.464320         0.122513
 O         3.453594         1.217355         0.908043
 C         3.446479        -0.142874         1.183141
 C         2.028842        -0.785670         1.126367
 H         3.480629        -2.840312        -1.315645
 H         4.948700        -1.963669        -0.573020
 H         4.217221        -3.241052         0.314766
 H        -0.042243         0.311584        -1.482458
 H        -0.428023        -0.392905         0.073069
 H        -0.158980         1.349266        -0.060530
 H         2.546084         1.782500        -0.867111
 H         1.633107         2.166152         0.716438
 H         3.938003        -0.512927         2.038068
 H         1.440444        -1.190084         2.006744
