19
Iteration:  2765charge 0 multiplicity 1
 C         3.634848        -2.610232        -0.045597
 C         3.194477        -1.163996         0.074871
 O         2.489070        -0.603086        -0.997477
 C         1.679961         0.145029        -0.085989
 C         0.184767         0.203018        -0.506339
 C         2.148004         1.538843         0.130613
 O         3.478408         1.320122         0.745046
 C         3.606182        -0.043733         1.054937
 C         2.162887        -0.687949         1.149164
 H         2.773761        -3.279954        -0.050094
 H         4.239386        -2.690841        -0.930676
 H         4.166302        -2.890551         0.887354
 H        -0.445570         0.188115         0.408992
 H         0.005345         1.130631        -1.002349
 H        -0.137404        -0.650136        -1.220168
 H         2.311776         2.082874        -0.771282
 H         1.384002         2.052474         0.814988
 H         4.318313        -0.204049         1.873432
 H         1.627842        -1.183085         1.887203
