19
Iteration:  2292
 C         3.956848        -2.385905        -0.365127
 C         3.227193        -1.208863         0.066318
 O         2.436493        -0.616026        -0.965023
 C         1.532852         0.046287         0.006859
 C         0.157315         0.350953        -0.482265
 C         2.219246         1.517737         0.192208
 O         3.488984         1.264542         0.874784
 C         3.420604        -0.258917         1.186774
 C         2.061538        -0.696498         1.102992
 H         3.383921        -2.566929        -1.349608
 H         4.995154        -2.203024        -0.637059
 H         3.812733        -3.257103         0.302903
 H         0.144372         0.255034        -1.573849
 H        -0.668906        -0.254071        -0.052631
 H        -0.187028         1.336561        -0.246064
 H         2.578613         1.840651        -0.774948
 H         1.474511         2.287053         0.510746
 H         4.211139        -0.347171         1.936869
 H         1.589300        -1.255017         1.967964
