19
Iteration:   767
 C         3.644746        -2.578618         0.129561
 C         3.120278        -1.202631         0.049262
 O         2.106124        -0.868327        -0.875766
 C         1.607313         0.139082         0.177323
 C         0.038376        -0.040028         0.138667
 C         2.171135         1.531426        -0.053846
 O         3.572661         1.488829         0.128160
 C         3.793976         0.116846         0.594564
 C         2.565804        -0.426733         1.291485
 H         4.604334        -2.608739         0.566257
 H         2.882829        -3.298456         0.623513
 H         3.641971        -2.971220        -0.891116
 H        -0.155329        -0.243089        -0.920607
 H        -0.356819        -0.943307         0.555937
 H        -0.502215         0.823195         0.521888
 H         2.000081         1.856495        -1.071842
 H         1.600356         2.217746         0.576919
 H         4.847969         0.155286         0.884584
 H         2.324800        -0.787214         2.294283
