19
Iteration:   407charge 0 multiplicity 1
 C         3.912759        -2.447139        -0.081802
 C         3.077155        -1.245061         0.180912
 O         2.099056        -0.938077        -0.765576
 C         1.516112         0.127232         0.167390
 C         0.001937         0.183634         0.118219
 C         2.231524         1.471118        -0.198841
 O         3.554178         1.351970         0.139497
 C         3.716066         0.104580         0.705169
 C         2.438989        -0.475147         1.338737
 H         4.673730        -2.519984         0.695830
 H         3.295623        -3.448352        -0.059590
 H         4.334965        -2.298216        -1.070274
 H        -0.402138         0.184778        -0.896867
 H        -0.466628        -0.605590         0.708613
 H        -0.432838         1.117046         0.480457
 H         2.154980         1.703913        -1.275940
 H         1.655492         2.224681         0.327887
 H         4.769256        -0.139536         1.156535
 H         2.272177        -0.881843         2.302748
