19
Iteration:  2456
 C         3.762723        -2.471862        -0.144281
 C         3.086606        -1.192807         0.036129
 O         2.464295        -0.427454        -1.081093
 C         1.609989         0.272786        -0.054617
 C         0.130897        -0.014842        -0.420343
 C         2.327130         1.586194         0.200222
 O         3.542331         1.191285         0.796289
 C         3.483016        -0.183052         1.153234
 C         2.062038        -0.646972         1.044694
 H         3.362003        -3.320740        -0.873437
 H         4.744379        -2.162213        -0.566328
 H         3.956484        -3.030453         0.805562
 H        -0.475101         0.388284         0.419476
 H        -0.221895         0.464429        -1.374717
 H         0.071367        -1.064707        -0.540575
 H         2.439304         2.201768        -0.669697
 H         1.801883         2.237430         1.014273
 H         4.266488        -0.376599         1.950257
 H         1.449662        -1.148761         1.729556
