19
Iteration:  1647
 C         3.673899        -2.474050        -0.037390
 C         3.088521        -1.134905         0.038041
 O         2.319191        -0.641208        -0.931108
 C         1.555135         0.195935         0.045126
 C         0.030558        -0.151565         0.064933
 C         2.214098         1.602221        -0.002993
 O         3.667579         1.287059         0.244581
 C         3.686589        -0.014056         0.939111
 C         2.248694        -0.531439         1.184543
 H         4.677141        -2.524899         0.398844
 H         3.080122        -3.377969         0.347940
 H         3.970671        -2.533100        -1.087923
 H        -0.247012        -0.690100        -0.836525
 H        -0.247925        -0.841485         0.838347
 H        -0.608423         0.701198         0.184860
 H         2.402068         2.181287        -0.946029
 H         1.665633         2.287248         0.684537
 H         4.638962        -0.001214         1.579172
 H         1.960303        -0.840184         2.146765
