19
Iteration:  2688
 C         4.013070        -2.353760        -0.190624
 C         3.040052        -1.244307         0.255535
 O         2.491554        -0.537630        -0.924721
 C         1.572648         0.164941        -0.114371
 C         0.014616         0.218136        -0.422920
 C         2.357225         1.482405         0.062518
 O         3.631712         1.120727         0.586523
 C         3.418369        -0.177302         1.252245
 C         1.930697        -0.618413         1.062885
 H         3.457484        -3.062531        -0.882444
 H         4.852569        -1.878200        -0.735654
 H         4.328869        -2.937007         0.700808
 H        -0.286182         1.230664        -0.731266
 H        -0.270770        -0.371782        -1.284626
 H        -0.557160        -0.038416         0.538503
 H         2.404913         2.049951        -0.824822
 H         1.880250         2.168397         0.778550
 H         3.864843        -0.522858         2.247005
 H         1.247228        -1.037729         1.860686
