19
Iteration:  2076charge 0 multiplicity 1
 C         3.753985        -2.580225        -0.184716
 C         3.116623        -1.179202         0.147689
 O         2.377366        -0.560917        -1.107271
 C         1.603655         0.193566        -0.006302
 C         0.141910         0.106431        -0.382479
 C         2.160714         1.520483         0.172279
 O         3.565555         1.327507         0.663847
 C         3.621263        -0.062953         1.085168
 C         2.195815        -0.646989         1.182816
 H         3.293757        -3.213067         0.651478
 H         3.340829        -3.046775        -1.068158
 H         4.866562        -2.595301        -0.138957
 H        -0.395853        -0.544860         0.313615
 H        -0.378246         1.080091        -0.443902
 H         0.183904        -0.431979        -1.339676
 H         2.254296         2.269970        -0.685961
 H         1.530710         2.075030         0.951938
 H         4.401980        -0.217465         1.778498
 H         1.740081        -1.250857         2.017058
