19
Iteration:  1604
 C         3.864118        -2.458501        -0.183383
 C         3.159114        -1.242614         0.146044
 O         2.205175        -0.849295        -0.834098
 C         1.531163         0.129954         0.122673
 C         0.067046         0.223458        -0.024626
 C         2.148913         1.459680        -0.126965
 O         3.505252         1.391801         0.337428
 C         3.684564         0.026560         0.831034
 C         2.413767        -0.572168         1.301024
 H         3.768367        -2.989874         0.789976
 H         3.218870        -3.105199        -0.897248
 H         4.918978        -2.257360        -0.340049
 H        -0.336557         0.525824        -1.015425
 H        -0.315579        -0.778077         0.179165
 H        -0.265873         0.911322         0.766873
 H         1.950047         1.520262        -1.238646
 H         1.679191         2.343921         0.271342
 H         4.584884        -0.182212         1.510555
 H         2.052556        -0.871900         2.242733
