19
Iteration:  4469
 C         3.588662        -2.682659         0.175943
 C         3.184922        -1.205332         0.091539
 O         2.614653        -0.636310        -1.074296
 C         1.618307         0.194835        -0.139474
 C         0.075599         0.274173        -0.475763
 C         2.208642         1.540938         0.119019
 O         3.532243         1.291680         0.627693
 C         3.544162        -0.055444         1.045023
 C         2.152034        -0.633007         1.106819
 H         2.749863        -3.461882         0.274569
 H         4.378554        -2.849919        -0.540262
 H         4.154711        -2.775906         1.069411
 H        -0.357108         1.149073        -0.849660
 H        -0.080554        -0.430242        -1.377996
 H        -0.449302        -0.134198         0.345868
 H         2.342789         2.350248        -0.625214
 H         1.595000         2.018816         0.935802
 H         4.284135        -0.183691         1.870595
 H         1.623190        -0.773859         2.071788
