19
Iteration:  1558
 C         3.927556        -2.431012         0.004090
 C         3.110468        -1.165728         0.125322
 O         2.157762        -0.837426        -0.884567
 C         1.520132         0.168597         0.117097
 C        -0.009088         0.139168         0.130352
 C         2.245150         1.489099        -0.128080
 O         3.591334         1.241653         0.171064
 C         3.676065         0.038191         0.766573
 C         2.294377        -0.534343         1.265393
 H         3.434766        -3.356095        -0.233339
 H         4.461530        -2.126079        -0.952994
 H         4.695767        -2.511709         0.819729
 H        -0.432890         1.112119        -0.061680
 H        -0.256334        -0.497352        -0.727527
 H        -0.422735        -0.205075         1.047121
 H         2.121085         1.978429        -1.101273
 H         1.791627         2.167974         0.605757
 H         4.459303        -0.114239         1.460625
 H         2.028535        -0.775999         2.293425
