19
Iteration:  4091charge 0 multiplicity 1
 C         3.598112        -2.656254         0.151739
 C         3.089313        -1.227033         0.200313
 O         2.498815        -0.557267        -1.066180
 C         1.638893         0.234162        -0.111526
 C         0.218715         0.157991        -0.432122
 C         2.237271         1.555194         0.008516
 O         3.555759         1.260646         0.575787
 C         3.539205        -0.049832         1.104513
 C         2.115137        -0.653705         1.159061
 H         2.824198        -3.356279        -0.125008
 H         4.474047        -2.782256        -0.631962
 H         3.928765        -2.849868         1.160525
 H        -0.324117         0.993329         0.074518
 H         0.095448         0.544971        -1.497481
 H        -0.166215        -0.854415        -0.439023
 H         2.522561         2.133093        -0.908494
 H         1.741853         2.422108         0.649501
 H         4.406825        -0.142860         1.791903
 H         1.436977        -1.091808         1.920079
