19
Iteration:  1460
 C         3.675538        -2.600615         0.078602
 C         3.216572        -1.198719         0.095466
 O         2.225717        -0.811186        -0.865265
 C         1.509573         0.177664         0.130336
 C         0.013857         0.009864         0.186002
 C         2.120328         1.527614        -0.187024
 O         3.566601         1.399714         0.078483
 C         3.789760         0.125412         0.752237
 C         2.452724        -0.469344         1.263505
 H         4.563597        -2.919713        -0.449548
 H         3.877741        -2.834567         1.190664
 H         2.759768        -3.186245        -0.209991
 H        -0.284405        -0.663220         0.997701
 H        -0.455057         1.011170         0.157009
 H        -0.104506        -0.523500        -0.756988
 H         1.879008         1.941439        -1.185238
 H         1.692241         2.248953         0.528110
 H         4.764193         0.102636         1.227504
 H         2.338826        -0.856375         2.356480
