19
Iteration:  2912
 C         3.878893        -2.468771         0.110684
 C         3.036254        -1.225689         0.117008
 O         2.411024        -0.642711        -1.021110
 C         1.502326         0.264922        -0.127390
 C         0.014056         0.212377        -0.440480
 C         2.406367         1.532454         0.020233
 O         3.641111         1.242477         0.668237
 C         3.486487        -0.206035         1.086199
 C         2.065227        -0.598365         1.114096
 H         3.404020        -3.520005         0.146099
 H         4.561496        -2.454886        -0.821700
 H         4.577873        -2.394025         0.967127
 H        -0.085359        -0.376851        -1.337273
 H        -0.596061        -0.281371         0.363367
 H        -0.332487         1.204420        -0.519231
 H         2.648098         1.931198        -1.045315
 H         1.897820         2.244617         0.683787
 H         4.142529        -0.560343         1.864604
 H         1.321601        -0.923889         1.895118
