19
Iteration:  1760charge 0 multiplicity 1
 C         3.963445        -2.362117        -0.204457
 C         3.100830        -1.206506         0.164801
 O         2.256290        -0.660545        -0.932869
 C         1.523632         0.149878        -0.023709
 C        -0.042898         0.114407         0.079916
 C         2.269784         1.499497        -0.154469
 O         3.668198         1.196192         0.453290
 C         3.576005        -0.085523         0.979373
 C         2.170223        -0.523946         1.180645
 H         3.662478        -3.027764        -1.074994
 H         4.984537        -2.106473        -0.386552
 H         3.953344        -2.999144         0.691771
 H        -0.220868        -0.939837         0.348553
 H        -0.530866         0.805527         0.773724
 H        -0.366043         0.219397        -0.973933
 H         2.462739         1.776634        -1.203745
 H         1.712838         2.252336         0.433991
 H         4.230313        -0.123337         1.823236
 H         1.634699        -0.861973         2.086697
