19
Iteration:  3899
 C         3.522429        -2.647675         0.118671
 C         3.080469        -1.260333         0.305399
 O         2.503177        -0.701700        -0.979506
 C         1.534089         0.172152        -0.110063
 C         0.132695         0.115501        -0.525249
 C         2.311890         1.576766         0.022957
 O         3.650872         1.319629         0.494496
 C         3.573014         0.038455         1.043327
 C         2.211769        -0.512576         1.207794
 H         2.718006        -3.286932        -0.359893
 H         4.327881        -2.748041        -0.489542
 H         3.760511        -2.957851         1.179976
 H        -0.058164        -0.798496        -1.228771
 H        -0.592994         0.086944         0.288594
 H         0.058958         1.049300        -1.101366
 H         2.389924         2.014211        -1.007934
 H         1.704452         2.259307         0.699261
 H         4.222269        -0.089448         1.962853
 H         1.668104        -0.607586         2.176348
