19
Iteration:  2903charge 0 multiplicity 1
 C         3.906214        -2.460379         0.122205
 C         3.028526        -1.210714         0.135804
 O         2.417103        -0.652272        -1.026156
 C         1.616322         0.238455        -0.097461
 C         0.026731         0.285125        -0.392887
 C         2.351424         1.532637         0.006815
 O         3.607203         1.178652         0.670184
 C         3.531100        -0.114578         1.077567
 C         1.955510        -0.684373         1.044313
 H         3.379122        -3.522978         0.199552
 H         4.556945        -2.397351        -0.776528
 H         4.570197        -2.479877         1.029775
 H        -0.175991        -0.207770        -1.336957
 H        -0.459428        -0.194495         0.419539
 H        -0.408262         1.261753        -0.575266
 H         2.655281         1.847595        -1.007776
 H         1.782851         2.342257         0.420777
 H         4.268609        -0.426047         1.772962
 H         1.499555        -1.086380         1.908975
