19
Iteration:   934charge 0 multiplicity 1
 C         3.572865        -2.550359         0.172299
 C         3.163508        -1.133257         0.035736
 O         2.221792        -0.716694        -0.910251
 C         1.520952         0.159226         0.084591
 C         0.049234        -0.228458         0.234970
 C         2.189746         1.574256        -0.076769
 O         3.661214         1.338713        -0.059877
 C         3.765040         0.067607         0.747163
 C         2.439645        -0.315247         1.250487
 H         4.528181        -2.590522         0.831685
 H         2.745101        -3.105138         0.618333
 H         3.792160        -3.010849        -0.835900
 H        -0.459389        -0.646229        -0.618545
 H        -0.089144        -1.065442         0.953672
 H        -0.478052         0.627743         0.645616
 H         1.871947         2.080114        -0.978632
 H         1.772594         2.115107         0.882586
 H         4.552887        -0.039556         1.407497
 H         2.277451        -0.598800         2.318344
