19
Iteration:  4507charge 0 multiplicity 1
 C         3.749719        -2.444813         0.025448
 C         2.990277        -1.231098         0.166193
 O         2.480586        -0.659598        -0.995747
 C         1.551357         0.239652        -0.050635
 C         0.147706         0.216486        -0.510962
 C         2.376440         1.593177        -0.007325
 O         3.617919         1.185715         0.623421
 C         3.453054        -0.086835         1.141901
 C         2.068006        -0.706840         1.195134
 H         3.343021        -3.169910        -0.614747
 H         4.684576        -2.357548        -0.614213
 H         3.977668        -2.667248         1.128252
 H         0.031110         0.763146        -1.549405
 H        -0.021117        -0.837065        -0.472149
 H        -0.595623         0.621610         0.272858
 H         2.541200         1.908504        -1.031659
 H         1.878290         2.331332         0.585526
 H         4.194497        -0.326709         1.863117
 H         1.402030        -1.048430         1.991608
