19
Iteration:  1433
 C         3.862821        -2.455148         0.121806
 C         3.094413        -1.199768         0.120297
 O         2.121373        -0.778705        -0.905962
 C         1.478712         0.189784         0.105628
 C         0.043577         0.018125         0.257153
 C         2.147300         1.491085        -0.193581
 O         3.667963         1.247662         0.016962
 C         3.746253         0.010955         0.756368
 C         2.322175        -0.411245         1.260381
 H         4.984555        -2.188453         0.002513
 H         3.807955        -2.807530         1.129043
 H         3.556965        -3.152440        -0.663761
 H        -0.231643        -0.986249         0.605360
 H        -0.273258         0.829575         0.923331
 H        -0.291349         0.161894        -0.788582
 H         1.972769         1.840955        -1.209444
 H         1.888945         2.231656         0.614253
 H         4.697912         0.025299         1.335533
 H         1.956132        -0.593037         2.232031
