19
Iteration:  1809charge 0 multiplicity 1
 C         3.912664        -2.572561        -0.163064
 C         3.132099        -1.168560         0.097575
 O         2.231447        -0.666412        -0.899263
 C         1.508995         0.100111         0.057923
 C        -0.027540         0.158314        -0.248709
 C         2.233484         1.584333         0.133706
 O         3.513893         1.280865         0.433961
 C         3.682546        -0.025205         0.923777
 C         2.353134        -0.573904         1.232095
 H         3.419142        -3.470783         0.162213
 H         3.883032        -2.805302        -1.262445
 H         4.943126        -2.635645         0.234420
 H        -0.585752        -0.424288         0.521877
 H        -0.307473         1.239770        -0.129069
 H        -0.158316        -0.213688        -1.269486
 H         1.955610         1.946273        -0.849581
 H         1.882861         2.214958         0.890969
 H         4.504096        -0.166409         1.633948
 H         2.037869        -0.949493         2.225768
