19
Iteration:  1494charge 0 multiplicity 1
 C         3.502813        -2.621058         0.018534
 C         3.178601        -1.137950         0.173942
 O         2.274177        -0.778636        -0.844327
 C         1.531566         0.168457         0.070879
 C         0.082743        -0.088061         0.085342
 C         2.097825         1.469983        -0.149254
 O         3.574291         1.437043         0.059721
 C         3.790645         0.172234         0.783539
 C         2.540039        -0.456840         1.374756
 H         3.484030        -2.904183        -1.011306
 H         4.585010        -2.794019         0.449647
 H         2.896790        -3.357117         0.584701
 H        -0.413385        -0.039507         1.089345
 H        -0.473009         0.576579        -0.641884
 H        -0.008671        -1.058968        -0.400114
 H         1.944379         2.041236        -1.093983
 H         1.785016         2.085562         0.695560
 H         4.721667         0.202262         1.282619
 H         2.263216        -0.764602         2.406457
