19
Iteration:  2467charge 0 multiplicity 1
 C         3.871107        -2.405900        -0.140062
 C         3.016873        -1.174793         0.040295
 O         2.518361        -0.507027        -1.077946
 C         1.617899         0.217676        -0.122349
 C         0.095033         0.121757        -0.363275
 C         2.312097         1.600233         0.214743
 O         3.590381         1.216768         0.769275
 C         3.440169        -0.206372         1.147910
 C         2.026957        -0.740329         1.036461
 H         3.286978        -3.145672        -0.908299
 H         4.929908        -2.205933        -0.407717
 H         3.887764        -2.790526         0.919712
 H        -0.468472         0.007833         0.591687
 H        -0.506474         0.715801        -1.108194
 H        -0.010964        -0.904893        -0.652542
 H         2.563162         2.064072        -0.708937
 H         1.560810         2.222887         0.874820
 H         4.163469        -0.601749         1.935438
 H         1.347731        -1.063425         1.752896
