19
Iteration:  1314
 C         3.681980        -2.526296         0.250074
 C         3.111618        -1.147652         0.134811
 O         2.196912        -0.748521        -0.888704
 C         1.582482         0.140806         0.043337
 C         0.053204        -0.108572         0.327385
 C         2.182416         1.519043        -0.215965
 O         3.618327         1.269627        -0.084565
 C         3.752554         0.132239         0.711639
 C         2.334111        -0.322235         1.208839
 H         3.926463        -2.793672         1.356861
 H         3.133675        -3.385487        -0.054058
 H         4.683125        -2.457687        -0.238535
 H        -0.606102         0.619136        -0.103565
 H        -0.192909        -1.098619         0.006064
 H        -0.056764        -0.108003         1.400254
 H         1.953984         1.861691        -1.195380
 H         1.817726         2.094463         0.606553
 H         4.763148         0.071097         1.195944
 H         2.198400        -0.787890         2.161611
