19
Iteration:  2275charge 0 multiplicity 1
 C         3.896066        -2.457192        -0.405619
 C         3.139959        -1.142872         0.110051
 O         2.400071        -0.529347        -0.953871
 C         1.550152         0.180206         0.027137
 C         0.119231         0.257200        -0.621390
 C         2.221462         1.502873         0.232262
 O         3.497555         1.214033         0.842262
 C         3.545057        -0.114283         1.144253
 C         2.123655        -0.822691         1.221038
 H         3.593001        -2.682402        -1.401684
 H         4.988878        -2.348504        -0.240511
 H         3.680319        -3.334200         0.221631
 H         0.262299         0.043066        -1.709524
 H        -0.605265        -0.474848        -0.190922
 H        -0.290263         1.299339        -0.493169
 H         2.378629         2.003052        -0.779175
 H         1.719807         2.038047         1.028110
 H         4.241329        -0.484766         1.971280
 H         1.568996        -1.255065         2.017808
