19
Iteration:  4881
 C         3.828432        -2.532777        -0.037932
 C         3.157648        -1.159598         0.030654
 O         2.457950        -0.491320        -1.084723
 C         1.579308         0.232951        -0.100575
 C         0.173564         0.245804        -0.473064
 C         2.151124         1.523107         0.292679
 O         3.528211         1.229411         0.779957
 C         3.538780        -0.217490         1.124300
 C         2.105169        -0.739250         1.011935
 H         3.247558        -3.358834        -0.626926
 H         4.625182        -2.477111        -0.821666
 H         4.264622        -2.826707         0.917193
 H        -0.313566        -0.758969        -0.571117
 H        -0.501239         0.810839         0.396426
 H         0.107031         0.742270        -1.461341
 H         2.215657         2.250808        -0.560293
 H         1.442409         1.936207         1.042611
 H         4.343742        -0.461228         1.832818
 H         1.434516        -1.299616         1.670790
