19
Iteration:   431
 C         4.047035        -2.379982        -0.231675
 C         3.124877        -1.270746         0.201916
 O         2.046067        -0.976772        -0.734075
 C         1.525863         0.101500         0.268733
 C         0.077546         0.358955         0.114130
 C         2.156455         1.347099        -0.314924
 O         3.510557         1.267272         0.124337
 C         3.681319         0.101951         0.867637
 C         2.413209        -0.455431         1.349549
 H         4.620152        -2.741048         0.593504
 H         3.274671        -3.235081        -0.474929
 H         4.656779        -2.137372        -1.181812
 H        -0.232085         0.579299        -0.921426
 H        -0.575167        -0.375373         0.566563
 H        -0.214232         1.281872         0.647871
 H         1.903684         1.142199        -1.368054
 H         1.693931         2.320511        -0.029086
 H         4.563374         0.027617         1.556828
 H         2.126959        -0.569585         2.415710
