19
Iteration:  3802charge 0 multiplicity 1
 C         3.827633        -2.561261         0.196492
 C         3.012741        -1.271134         0.197922
 O         2.363057        -0.776648        -1.081916
 C         1.601326         0.209709        -0.083539
 C         0.102558         0.391734        -0.467544
 C         2.302564         1.545275        -0.012948
 O         3.603581         1.260043         0.567672
 C         3.568079        -0.045088         1.106395
 C         2.112135        -0.620504         1.153943
 H         3.213418        -3.499273         0.072286
 H         4.521159        -2.638511        -0.594541
 H         4.375101        -2.501021         1.187283
 H        -0.626231         0.067792         0.361793
 H        -0.075185         1.378162        -0.778766
 H         0.004237        -0.311859        -1.279573
 H         2.326066         1.801290        -1.033709
 H         1.644109         2.135047         0.598300
 H         4.396476        -0.291299         1.807182
 H         1.479918        -1.066752         1.911026
