19
Iteration:    77charge 0 multiplicity 1
 C         3.956646        -2.530841        -0.171332
 C         3.162473        -1.244760         0.231251
 O         2.174529        -0.912119        -0.738901
 C         1.541573         0.045491         0.162293
 C         0.028708         0.299134         0.089285
 C         2.178259         1.419201        -0.296751
 O         3.509952         1.343199         0.150642
 C         3.593628         0.108916         0.782603
 C         2.342357        -0.495453         1.383519
 H         4.718550        -2.677573         0.615256
 H         3.456000        -3.485081        -0.210219
 H         4.512748        -2.256634        -1.078820
 H        -0.111742         1.365277         0.002153
 H        -0.369893        -0.305369        -0.706092
 H        -0.414633         0.202625         1.067986
 H         2.123475         1.527542        -1.388990
 H         1.775408         2.361942         0.096472
 H         4.514551         0.156390         1.472531
 H         2.237341        -0.424541         2.481678
