19
Iteration:  1318
 C         3.688246        -2.467091         0.252518
 C         3.146275        -1.188010         0.127289
 O         2.158759        -0.772976        -0.862507
 C         1.564346         0.142595         0.036729
 C         0.052246        -0.113183         0.301572
 C         2.162235         1.525868        -0.222222
 O         3.640953         1.273649        -0.054875
 C         3.748502         0.094451         0.707753
 C         2.393023        -0.319247         1.205370
 H         3.943197        -2.778221         1.223186
 H         3.060768        -3.289439        -0.097571
 H         4.621463        -2.562482        -0.340762
 H        -0.597872         0.644273        -0.152081
 H        -0.153646        -1.148816         0.026170
 H        -0.236111         0.003684         1.390774
 H         1.969765         1.890181        -1.252045
 H         1.750123         2.203602         0.605811
 H         4.684802         0.130743         1.239631
 H         2.151349        -0.611796         2.214568
