19
Iteration:  3194
 C         3.577646        -2.550016         0.006759
 C         3.102776        -1.193677         0.175114
 O         2.426918        -0.583081        -0.993393
 C         1.624082         0.170740        -0.107795
 C         0.189213         0.079231        -0.573941
 C         2.279707         1.544285         0.062634
 O         3.607084         1.325721         0.698967
 C         3.540246        -0.036155         1.117478
 C         2.158617        -0.623366         1.209056
 H         3.024448        -3.186593        -0.693383
 H         4.719541        -2.437606        -0.323356
 H         3.594399        -3.116717         0.990983
 H         0.307171        -0.024619        -1.675845
 H        -0.338397        -0.878123        -0.357109
 H        -0.538929         0.831159        -0.321693
 H         2.597033         1.940121        -0.906402
 H         1.523591         2.074082         0.644199
 H         4.404468        -0.171328         1.822397
 H         1.548839        -1.001218         1.982325
