19
Iteration:    94charge 0 multiplicity 1
 C         3.894827        -2.553250         0.010177
 C         3.125440        -1.270016         0.201354
 O         2.148692        -0.860005        -0.812622
 C         1.496348         0.166516         0.169447
 C        -0.016266         0.155887         0.079491
 C         2.159799         1.514701        -0.185352
 O         3.563439         1.408030         0.137280
 C         3.785298         0.054137         0.752333
 C         2.439192        -0.484061         1.258294
 H         4.517492        -2.856643         0.847663
 H         3.145115        -3.361907        -0.162537
 H         4.498128        -2.404668        -0.941300
 H        -0.568006         1.091741        -0.255054
 H        -0.357291        -0.632063        -0.633513
 H        -0.555361        -0.080067         1.028474
 H         1.998823         1.616068        -1.282522
 H         1.577337         2.304131         0.341724
 H         4.664170        -0.061189         1.308475
 H         2.117368        -0.795360         2.233119
