19
Iteration:  1223
 C         3.950146        -2.511078        -0.026408
 C         3.171455        -1.210812         0.268583
 O         2.035590        -0.895697        -0.696561
 C         1.528233         0.139177         0.147294
 C        -0.044861         0.164376         0.127965
 C         2.175947         1.402183        -0.386733
 O         3.563931         1.326036        -0.007322
 C         3.746701         0.115280         0.796511
 C         2.436354        -0.365353         1.392674
 H         4.757372        -2.747261         0.657029
 H         3.288212        -3.481974         0.058292
 H         4.499815        -2.432665        -0.981922
 H        -0.491855         1.055455        -0.389698
 H        -0.381987        -0.847532        -0.215461
 H        -0.511378         0.262067         1.130779
 H         2.034995         1.414811        -1.502775
 H         1.820668         2.269468         0.106207
 H         4.672800        -0.205167         1.164653
 H         2.191225        -0.384793         2.503638
