19
Iteration:  2685
 C         4.008894        -2.372521        -0.191580
 C         3.053778        -1.206823         0.250188
 O         2.484180        -0.535345        -0.926154
 C         1.603868         0.182064        -0.099178
 C         0.016033         0.217000        -0.430425
 C         2.346445         1.476245         0.081949
 O         3.624288         1.101833         0.586552
 C         3.405048        -0.166476         1.247826
 C         1.929197        -0.630232         1.064296
 H         3.523789        -3.043349        -0.897144
 H         4.878899        -2.012859        -0.669763
 H         4.326873        -2.929185         0.643904
 H        -0.281031         1.241667        -0.777999
 H        -0.369026        -0.445972        -1.310401
 H        -0.541586         0.041104         0.478056
 H         2.385762         1.989952        -0.887546
 H         1.804336         2.193101         0.788564
 H         3.937177        -0.491124         2.148661
 H         1.294112        -1.007580         1.960488
