19
Iteration:  3293
 C         3.784594        -2.588777         0.199695
 C         3.020780        -1.252211         0.077710
 O         2.483724        -0.536796        -1.072797
 C         1.616115         0.155409        -0.123678
 C         0.107716         0.218688        -0.422804
 C         2.356770         1.523545        -0.050323
 O         3.516946         1.256863         0.738206
 C         3.470639        -0.080697         1.117417
 C         2.113115        -0.621242         1.086972
 H         3.230501        -3.489741         0.202548
 H         4.405386        -2.868504        -0.747367
 H         4.538936        -2.452810         1.042706
 H        -0.144945         0.936041        -1.238922
 H        -0.321395        -0.633595        -0.851105
 H        -0.501314         0.449878         0.425797
 H         2.583843         1.819283        -1.111575
 H         1.983799         2.451812         0.481396
 H         4.228802        -0.477116         1.753150
 H         1.398144        -0.914920         1.894476
