19
Iteration:  3660charge 0 multiplicity 1
 C         3.704344        -2.543508         0.098790
 C         3.148128        -1.215360         0.137620
 O         2.418386        -0.711655        -0.958361
 C         1.630386         0.099578        -0.117574
 C         0.132991         0.339740        -0.554926
 C         2.228978         1.522847         0.073319
 O         3.620928         1.280187         0.573598
 C         3.526631        -0.043345         1.137063
 C         2.072745        -0.664670         1.134390
 H         2.933164        -3.398267         0.119067
 H         4.223365        -2.687546        -0.827492
 H         4.500996        -2.619172         0.893837
 H         0.023855         1.306648        -1.091163
 H        -0.281005        -0.471120        -1.077027
 H        -0.345701         0.472211         0.394447
 H         2.382396         2.058139        -0.814858
 H         1.633997         2.006578         0.864313
 H         4.376363        -0.080393         1.832572
 H         1.645093        -1.036398         2.071493
