19
Iteration:   507charge 0 multiplicity 1
 C         3.628680        -2.575938         0.197722
 C         3.158461        -1.153923         0.113748
 O         2.244008        -0.716201        -0.898210
 C         1.518018         0.146853         0.067163
 C        -0.003177        -0.075683         0.249075
 C         2.152348         1.584645        -0.066462
 O         3.561109         1.284334        -0.020307
 C         3.823321         0.137875         0.699728
 C         2.509924        -0.463769         1.183601
 H         4.189969        -2.612378         1.063788
 H         2.796532        -3.287985         0.077908
 H         4.205871        -2.821797        -0.670673
 H        -0.580519         0.371205        -0.578727
 H        -0.321734        -1.113645         0.329459
 H        -0.375210         0.368972         1.167671
 H         1.911285         1.791335        -1.085503
 H         1.762707         2.353979         0.582363
 H         4.675652         0.123359         1.336176
 H         2.453803        -0.864582         2.229469
