19
Iteration:  4388charge 0 multiplicity 1
 C         3.775392        -2.490448        -0.006085
 C         3.006951        -1.225769         0.243468
 O         2.437356        -0.695798        -0.901694
 C         1.614182         0.214129        -0.086958
 C         0.182893         0.203021        -0.499903
 C         2.385783         1.522270        -0.068263
 O         3.611467         1.187768         0.491535
 C         3.404462        -0.057123         1.182492
 C         2.043805        -0.518745         1.252284
 H         3.144099        -3.174921        -0.615919
 H         4.604495        -2.343003        -0.743135
 H         4.131840        -2.998253         0.956867
 H        -0.417561         0.101961         0.467570
 H        -0.084753         0.919824        -1.233113
 H        -0.041061        -0.768076        -1.017157
 H         2.660474         1.785006        -1.127360
 H         1.920383         2.384878         0.542436
 H         3.963653        -0.213485         2.120597
 H         1.426243        -0.739842         2.126360
