19
Iteration:  3310charge 0 multiplicity 1
 C         3.662119        -2.511290         0.112164
 C         3.106597        -1.136978         0.127783
 O         2.375174        -0.679639        -1.055134
 C         1.650705         0.233147        -0.065864
 C         0.203897         0.167851        -0.532062
 C         2.314377         1.540854        -0.022720
 O         3.531432         1.291079         0.783596
 C         3.580492        -0.128976         1.044922
 C         2.093078        -0.625419         1.130033
 H         2.795883        -3.259771         0.176826
 H         4.318002        -2.665749        -0.693554
 H         4.195537        -2.665302         1.012285
 H         0.005203         0.793643        -1.414120
 H         0.024221        -0.950196        -0.813351
 H        -0.431211         0.438631         0.352380
 H         2.735342         1.821551        -0.961507
 H         1.582811         2.206934         0.418585
 H         4.302654        -0.236177         1.899118
 H         1.679871        -1.137173         1.954771
