19
Iteration:  4687
 C         3.638720        -2.472971        -0.227508
 C         3.146568        -1.184309         0.183517
 O         2.459008        -0.583621        -0.883060
 C         1.616819         0.143093        -0.022709
 C         0.244901         0.093294        -0.554978
 C         2.275916         1.528234         0.076223
 O         3.524391         1.263139         0.690237
 C         3.540570        -0.131221         1.152993
 C         2.092686        -0.568516         1.185447
 H         2.784819        -3.202860        -0.613898
 H         4.439961        -2.282108        -0.949297
 H         4.052554        -3.034401         0.598254
 H        -0.464027         0.654575         0.103374
 H         0.237747         0.794100        -1.518887
 H        -0.168610        -0.920324        -0.643482
 H         2.304132         1.863424        -0.978777
 H         1.762800         2.207543         0.757960
 H         4.200618        -0.265678         1.970333
 H         1.495737        -0.980505         1.971525
