19
Iteration:  2359charge 0 multiplicity 1
 C         3.860825        -2.478111        -0.139116
 C         3.076975        -1.116471         0.007273
 O         2.436399        -0.434354        -1.048221
 C         1.584254         0.218330        -0.085655
 C         0.104571         0.137966        -0.499557
 C         2.257740         1.574919         0.251737
 O         3.565983         1.185788         0.790830
 C         3.492917        -0.226012         1.166417
 C         2.097353        -0.760299         1.098260
 H         3.378066        -3.491418        -0.101836
 H         4.294815        -2.535586        -1.121003
 H         4.634654        -2.445056         0.620095
 H        -0.249652         0.982445        -1.130367
 H        -0.126686        -0.820036        -1.015025
 H        -0.496789         0.159148         0.386778
 H         2.519039         2.242452        -0.565383
 H         1.645360         2.234513         0.879957
 H         4.276381        -0.709798         1.895222
 H         1.440944        -1.241904         1.797628
