19
Iteration:  2867charge 0 multiplicity 1
 C         3.844844        -2.595472        -0.027424
 C         3.171549        -1.248920         0.168451
 O         2.467104        -0.725740        -1.012139
 C         1.547666         0.092536        -0.119145
 C         0.043541         0.418423        -0.467570
 C         2.248579         1.468362        -0.002358
 O         3.552566         1.270785         0.695912
 C         3.511402        -0.020040         1.167712
 C         2.115089        -0.596928         1.124636
 H         3.116014        -3.244291        -0.565266
 H         4.850819        -2.546966        -0.622195
 H         4.087579        -2.830342         1.033400
 H        -0.344129        -0.343724        -1.127748
 H        -0.609914         0.263243         0.462408
 H        -0.119109         1.426327        -0.733296
 H         2.466471         1.825271        -1.077886
 H         1.678580         2.160388         0.643387
 H         4.285779        -0.073712         1.974138
 H         1.533859        -0.982929         2.057500
