19
Iteration:   186
 C         3.547172        -2.493624        -0.037987
 C         3.167797        -1.074896         0.163857
 O         2.179964        -0.845190        -0.833956
 C         1.547592         0.109673         0.169198
 C         0.044482        -0.101890         0.084417
 C         2.189428         1.500248        -0.140337
 O         3.561345         1.352312         0.119480
 C         3.837001         0.176100         0.760484
 C         2.527757        -0.405879         1.335890
 H         4.247667        -2.966041         0.714296
 H         2.588171        -3.026411        -0.081901
 H         3.930787        -2.520513        -1.062525
 H        -0.161589        -0.464585        -0.924715
 H        -0.329344        -0.937130         0.695286
 H        -0.563370         0.768217         0.389645
 H         2.138552         1.767964        -1.206003
 H         1.828294         2.326290         0.524985
 H         4.876347         0.069055         1.190160
 H         2.298034        -1.046780         2.273329
