19
Iteration:   955
 C         3.711774        -2.492264         0.108323
 C         3.002467        -1.193291         0.189716
 O         2.111534        -0.706670        -0.880241
 C         1.615855         0.238475         0.173823
 C         0.128283        -0.181138         0.189737
 C         2.252726         1.628720        -0.185325
 O         3.616019         1.242530        -0.018773
 C         3.751956         0.076014         0.734389
 C         2.385466        -0.369508         1.296974
 H         4.786735        -2.451876         0.453971
 H         3.196739        -3.356391         0.541187
 H         3.551080        -2.770227        -0.951674
 H        -0.172753        -0.618600        -0.758407
 H         0.124781        -1.170466         0.734386
 H        -0.723773         0.314307         0.614797
 H         1.959836         1.834548        -1.207553
 H         1.862149         2.465123         0.517962
 H         4.686526         0.070846         1.191368
 H         1.951926        -0.770905         2.254834
