19
Iteration:  4280
 C         3.522194        -2.651296        -0.026240
 C         3.099885        -1.123624         0.316294
 O         2.504691        -0.603813        -0.910659
 C         1.597813         0.217671        -0.128871
 C         0.279654         0.054892        -0.520268
 C         2.299652         1.512425        -0.009115
 O         3.587225         1.194341         0.525427
 C         3.537489         0.001333         1.116933
 C         2.060189        -0.430995         1.198852
 H         2.688662        -3.418752        -0.074157
 H         4.003809        -2.633494        -0.989271
 H         4.352882        -2.973326         0.689907
 H        -0.128361        -0.238024         0.507029
 H        -0.385215         0.813916        -0.772105
 H         0.372184        -0.788151        -1.225237
 H         2.381473         2.012668        -0.989299
 H         1.869387         2.227406         0.616670
 H         4.141351        -0.157229         2.047475
 H         1.525310        -0.657844         2.098051
