19
Iteration:    86
 C         3.919976        -2.582554        -0.058844
 C         3.110514        -1.277731         0.206869
 O         2.200965        -0.891205        -0.749852
 C         1.532763         0.156512         0.176220
 C        -0.025212         0.222209         0.087874
 C         2.163953         1.464919        -0.228358
 O         3.545743         1.420530         0.147540
 C         3.675300         0.076645         0.698709
 C         2.383239        -0.505619         1.338485
 H         4.659314        -2.711847         0.689766
 H         3.368731        -3.453728        -0.332427
 H         4.557798        -2.380529        -1.028208
 H        -0.226913         1.264761        -0.305870
 H        -0.473334        -0.447528        -0.654905
 H        -0.433173        -0.099990         1.044712
 H         2.070146         1.512069        -1.348915
 H         1.742527         2.365254         0.267254
 H         4.481998         0.150136         1.439110
 H         2.220650        -0.729789         2.326834
