19
Iteration:  3360
 C         3.611984        -2.577946        -0.045623
 C         3.075478        -1.234478         0.247953
 O         2.645621        -0.535228        -0.859724
 C         1.620065         0.218525        -0.022347
 C         0.200068         0.105118        -0.542879
 C         2.222186         1.570823         0.082157
 O         3.532854         1.193250         0.482711
 C         3.447677        -0.087196         1.123153
 C         2.109432        -0.551376         1.163544
 H         2.931471        -3.039888        -0.796330
 H         4.608449        -2.598619        -0.628983
 H         3.740408        -3.177767         0.915533
 H         0.219536         0.069045        -1.648140
 H        -0.294159        -0.783227        -0.256635
 H        -0.324410         0.971130        -0.094061
 H         2.446627         2.052938        -0.936458
 H         1.595063         2.228465         0.797259
 H         4.347989        -0.089084         1.724203
 H         1.487147        -0.885405         2.006626
