19
Iteration:  2848charge 0 multiplicity 1
 C         3.745923        -2.568411        -0.011033
 C         3.085778        -1.212436         0.213350
 O         2.395911        -0.688866        -0.944021
 C         1.646579         0.222606        -0.083058
 C         0.131069         0.179294        -0.528298
 C         2.299010         1.592338         0.058281
 O         3.557733         1.310681         0.646073
 C         3.540646        -0.099256         1.079514
 C         2.111591        -0.643549         1.168389
 H         3.073170        -2.896406        -0.854025
 H         4.680306        -2.336242        -0.585034
 H         4.036815        -3.244161         0.800649
 H        -0.165281        -0.732391        -1.038504
 H        -0.571330         0.377588         0.295758
 H        -0.045521         1.009780        -1.195860
 H         2.528102         2.076261        -0.905891
 H         1.612928         2.215351         0.623228
 H         4.231729        -0.385294         1.869582
 H         1.684533        -1.085301         2.114693
