19
Iteration:   605charge 0 multiplicity 1
 C         3.922430        -2.397930        -0.055411
 C         3.092594        -1.216684         0.239366
 O         2.124634        -0.852915        -0.882273
 C         1.525813         0.134648         0.103600
 C         0.055285         0.146622         0.310741
 C         2.178627         1.466687        -0.275301
 O         3.610398         1.251617        -0.006089
 C         3.687613         0.053438         0.868564
 C         2.344626        -0.423677         1.333834
 H         4.719250        -2.500947         0.608108
 H         3.316396        -3.354269        -0.131898
 H         4.333729        -2.165559        -1.050804
 H        -0.656153         0.185627        -0.518471
 H        -0.153094        -0.889932         0.679192
 H        -0.141708         0.831372         1.143377
 H         1.961320         1.499366        -1.330029
 H         1.748904         2.400859         0.273287
 H         4.660412        -0.208483         1.063459
 H         1.810458        -0.742950         2.273975
