19
Iteration:  3000
 C         3.511030        -2.587621         0.111269
 C         3.114372        -1.224693         0.132607
 O         2.504251        -0.613339        -1.053793
 C         1.585416         0.200808        -0.127165
 C         0.232090         0.054296        -0.512314
 C         2.263995         1.598266         0.119193
 O         3.581360         1.324171         0.637702
 C         3.565389        -0.027031         1.104950
 C         2.161158        -0.631830         1.140875
 H         2.710943        -3.166563        -0.419353
 H         4.497835        -2.494897        -0.348385
 H         3.528000        -2.973209         1.155879
 H         0.105547         0.262880        -1.603006
 H        -0.250260        -0.872661        -0.201905
 H        -0.396838         0.866481        -0.093921
 H         2.448908         2.203167        -0.880089
 H         1.711836         2.297301         0.819648
 H         4.384890        -0.290680         1.777123
 H         1.744883        -1.192343         1.932772
