19
Iteration:  3659charge 0 multiplicity 1
 C         3.710554        -2.537551         0.094129
 C         3.156846        -1.219061         0.135130
 O         2.421285        -0.716837        -0.947545
 C         1.623509         0.102914        -0.122686
 C         0.126528         0.346314        -0.554170
 C         2.232541         1.520028         0.075889
 O         3.622957         1.282084         0.570861
 C         3.519129        -0.042205         1.139961
 C         2.064116        -0.670336         1.128121
 H         2.896519        -3.400880         0.140533
 H         4.244989        -2.671727        -0.825345
 H         4.499376        -2.607244         0.872253
 H         0.038001         1.305503        -1.091872
 H        -0.282971        -0.522822        -1.063792
 H        -0.334816         0.496226         0.412300
 H         2.399019         2.071122        -0.844072
 H         1.668930         2.017980         0.867380
 H         4.392307        -0.099239         1.827419
 H         1.623777        -1.043533         2.088804
