19
Iteration:   128
 C         3.560515        -2.480446         0.223025
 C         3.123834        -1.113885         0.053274
 O         2.269735        -0.673331        -0.983111
 C         1.580217         0.127121         0.105639
 C         0.076165        -0.191143         0.189149
 C         2.183966         1.539610         0.010211
 O         3.640702         1.383624        -0.001503
 C         3.717979         0.029755         0.729410
 C         2.371859        -0.463927         1.169687
 H         4.022923        -2.582621         1.180951
 H         2.693410        -3.143228         0.208549
 H         4.359359        -2.900707        -0.535296
 H        -0.546464         0.583959        -0.406904
 H         0.084525        -1.252107        -0.131360
 H        -0.080073        -0.165692         1.292465
 H         1.929116         2.154759        -0.890601
 H         1.943068         2.166322         0.924945
 H         4.572281        -0.089888         1.374007
 H         2.130400        -0.896016         2.057495
