19
Iteration:  4008charge 0 multiplicity 1
 C         3.736865        -2.599373        -0.026209
 C         3.104748        -1.261895         0.329464
 O         2.464679        -0.711152        -0.837756
 C         1.563096         0.217295        -0.052567
 C         0.078077         0.259141        -0.602754
 C         2.323008         1.548194        -0.101272
 O         3.581992         1.258802         0.524310
 C         3.516324        -0.102810         1.162582
 C         2.092273        -0.494788         1.271647
 H         2.950607        -3.441728        -0.024172
 H         4.240413        -2.316738        -0.921419
 H         4.599689        -3.009032         0.632244
 H        -0.647552        -0.582269        -0.310890
 H        -0.199084         1.251547        -0.399760
 H         0.101943         0.189489        -1.693610
 H         2.618944         1.803629        -1.152125
 H         1.922981         2.424556         0.420639
 H         4.369655        -0.213897         1.886415
 H         1.373381        -1.063271         1.935362
