19
Iteration:  3872charge 0 multiplicity 1
 C         3.603616        -2.617160         0.055776
 C         3.132140        -1.218004         0.281872
 O         2.365070        -0.642788        -0.852814
 C         1.542869         0.253663        -0.068968
 C         0.210519         0.082862        -0.555972
 C         2.367742         1.575877        -0.076548
 O         3.639689         1.287466         0.487689
 C         3.543378        -0.093506         1.111775
 C         2.109175        -0.496726         1.267749
 H         2.714062        -3.232065         0.041074
 H         4.065304        -2.760249        -1.060783
 H         4.344736        -2.865492         0.804419
 H         0.159536        -0.937086        -0.785637
 H        -0.599316         0.518860         0.107086
 H         0.083782         0.564729        -1.547979
 H         2.544770         1.800067        -1.144663
 H         1.774138         2.308094         0.505530
 H         4.354019        -0.253241         1.782771
 H         1.422628        -0.703005         2.076588
