19
Iteration:   653
 C         4.011533        -2.401384         0.011729
 C         3.060062        -1.242392         0.130442
 O         1.973055        -0.954970        -0.798691
 C         1.502705         0.039845         0.198001
 C         0.003180         0.314582         0.229462
 C         2.211771         1.359463        -0.267570
 O         3.558872         1.387431         0.084471
 C         3.762321         0.158897         0.650416
 C         2.468520        -0.579297         1.355189
 H         4.351462        -2.796925         1.031758
 H         3.513271        -3.183143        -0.469428
 H         4.910603        -2.110471        -0.612981
 H        -0.250047         1.095049        -0.489429
 H        -0.792658        -0.347031        -0.186735
 H        -0.095187         0.562161         1.306372
 H         1.983674         1.430175        -1.378832
 H         1.640650         2.139564         0.303825
 H         4.846758         0.081212         1.053425
 H         2.175574        -1.000224         2.282425
