19
Iteration:   103
 C         3.805251        -2.503059         0.068672
 C         3.156122        -1.160904         0.134103
 O         2.081007        -0.820245        -0.888753
 C         1.544438         0.127480         0.120317
 C        -0.035517         0.045947         0.088965
 C         2.141191         1.506525        -0.136365
 O         3.586314         1.328130         0.136496
 C         3.802912         0.070164         0.806535
 C         2.475927        -0.448130         1.234632
 H         4.364426        -2.782415         1.007746
 H         3.003662        -3.301079        -0.003445
 H         4.505908        -2.602681        -0.742267
 H        -0.443101         0.997286        -0.285284
 H        -0.119491        -0.829628        -0.572230
 H        -0.416483        -0.144681         1.115651
 H         2.081110         1.883937        -1.158556
 H         1.817437         2.344902         0.522873
 H         4.801940        -0.044705         1.170904
 H         2.085886        -0.708514         2.279295
