19
Iteration:  4899charge 0 multiplicity 1
 C         3.944143        -2.468720        -0.134971
 C         3.092326        -1.253917         0.037287
 O         2.431396        -0.471308        -1.044365
 C         1.542937         0.130146        -0.009745
 C         0.039942         0.315521        -0.542893
 C         2.267682         1.522477         0.236496
 O         3.521245         1.202009         0.837838
 C         3.501963        -0.126719         1.060338
 C         2.123663        -0.795615         1.086590
 H         3.463892        -3.251909        -0.718748
 H         4.975515        -2.315496        -0.594723
 H         3.919225        -2.830410         0.917406
 H        -0.593413        -0.528990        -0.216420
 H        -0.448389         1.122382        -0.136422
 H         0.189813         0.431331        -1.654643
 H         2.551071         1.940453        -0.739238
 H         1.802738         2.221665         0.939312
 H         4.095302        -0.485857         1.885261
 H         1.696856        -1.275799         1.946410
