19
Iteration:  2295charge 0 multiplicity 1
 C         3.953771        -2.407020        -0.375459
 C         3.217068        -1.176181         0.077691
 O         2.448025        -0.634336        -0.993400
 C         1.541149         0.071027        -0.000627
 C         0.163354         0.371829        -0.460674
 C         2.218074         1.510060         0.172183
 O         3.479615         1.251166         0.884568
 C         3.420543        -0.230862         1.175069
 C         2.036047        -0.722078         1.105280
 H         3.403708        -2.622115        -1.275916
 H         4.966006        -2.076166        -0.545783
 H         4.023818        -3.262886         0.275912
 H         0.075200         0.273570        -1.600739
 H        -0.597506        -0.313911         0.067422
 H        -0.206752         1.359477        -0.136786
 H         2.688082         1.751565        -0.839446
 H         1.473812         2.202257         0.570959
 H         4.186136        -0.391618         2.086303
 H         1.591896        -1.200633         1.947869
