19
Iteration:  4986charge 0 multiplicity 1
 C         3.779659        -2.446872        -0.180469
 C         3.115147        -1.160693         0.002778
 O         2.494132        -0.376737        -1.124690
 C         1.550664         0.155752         0.012044
 C         0.189207         0.189317        -0.516414
 C         2.234386         1.547009         0.275894
 O         3.559291         1.224419         0.831766
 C         3.492052        -0.225635         1.171778
 C         2.069985        -0.840114         1.068606
 H         3.192653        -3.291752        -0.394949
 H         4.649102        -2.265127        -0.832259
 H         4.136114        -2.763361         0.800969
 H        -0.471028         0.625419         0.280115
 H         0.074589         0.653614        -1.441525
 H        -0.173529        -0.880510        -0.754965
 H         2.359990         2.036172        -0.712306
 H         1.575852         2.087311         1.057391
 H         4.223848        -0.474463         1.927413
 H         1.457079        -1.312654         1.864833
