19
Iteration:  1746
 C         3.958829        -2.513222        -0.152110
 C         3.127416        -1.197038         0.086484
 O         2.279078        -0.725454        -0.961098
 C         1.506918         0.209946         0.105379
 C        -0.009249         0.081295        -0.020717
 C         2.266685         1.515198        -0.104925
 O         3.621986         1.329359         0.398212
 C         3.561191        -0.044035         1.015428
 C         2.181708        -0.564940         1.223032
 H         3.629805        -2.704587        -1.194335
 H         5.067574        -2.223572        -0.165403
 H         3.797759        -3.434597         0.406146
 H        -0.414104        -0.921015         0.027526
 H        -0.318473         0.516467         0.913189
 H        -0.531999         0.683470        -0.755860
 H         2.220201         1.750676        -1.217056
 H         1.961828         2.519406         0.419727
 H         4.393770        -0.402935         1.603540
 H         1.701645        -0.697855         2.248927
