19
Iteration:    51charge 0 multiplicity 1
 C         3.957428        -2.270414        -0.154700
 C         3.109672        -1.123541         0.243426
 O         2.066602        -1.011669        -0.742606
 C         1.483252         0.098277         0.125107
 C        -0.056479         0.261992         0.130119
 C         2.306027         1.314084        -0.331515
 O         3.674501         1.209777         0.124105
 C         3.694900         0.072099         0.896502
 C         2.283543        -0.410096         1.340050
 H         4.876452        -2.379712         0.430028
 H         3.517513        -3.276769        -0.136365
 H         4.260104        -1.863247        -1.213438
 H        -0.432866         1.335092         0.265845
 H        -0.424976        -0.279769        -0.771155
 H        -0.469221        -0.097000         1.103612
 H         2.240939         1.417451        -1.448500
 H         1.886327         2.271681         0.087564
 H         4.477697         0.020508         1.587889
 H         1.912526        -1.045597         2.114773
