19
Iteration:    76charge 0 multiplicity 1
 C         3.961689        -2.521291        -0.175391
 C         3.171501        -1.242526         0.234456
 O         2.165944        -0.913939        -0.741109
 C         1.536158         0.035377         0.159269
 C         0.040444         0.305061         0.091869
 C         2.180763         1.416190        -0.303449
 O         3.506611         1.331352         0.149473
 C         3.596473         0.110374         0.802856
 C         2.340903        -0.491098         1.387838
 H         4.702759        -2.676844         0.592769
 H         3.450061        -3.453510        -0.191189
 H         4.519480        -2.235143        -1.130896
 H        -0.127894         1.395729         0.013856
 H        -0.377123        -0.288443        -0.708806
 H        -0.429487         0.215500         1.062923
 H         2.122417         1.517280        -1.410631
 H         1.743615         2.353744         0.089608
 H         4.513301         0.124755         1.458694
 H         2.224554        -0.395484         2.431653
