19
Iteration:  4718charge 0 multiplicity 1
 C         3.946273        -2.521888        -0.013914
 C         3.103543        -1.257224         0.115854
 O         2.412821        -0.605591        -1.048171
 C         1.566133         0.194785        -0.106085
 C         0.017576         0.297438        -0.419852
 C         2.355958         1.500905         0.163092
 O         3.604377         1.278157         0.690770
 C         3.438628        -0.168111         1.105332
 C         2.034627        -0.641002         1.076001
 H         3.497251        -3.239081        -0.777262
 H         4.861446        -2.374024        -0.541320
 H         4.103396        -2.926492         0.958692
 H        -0.543707         1.236157        -0.318597
 H        -0.025119         0.020739        -1.610914
 H        -0.600612        -0.408031         0.098386
 H         2.329441         2.133491        -0.739195
 H         1.924802         2.060072         1.059133
 H         4.191599        -0.388063         1.817225
 H         1.484220        -1.138500         1.844741
