19
Iteration:  1774
 C         3.936519        -2.316378        -0.167875
 C         3.015873        -1.176450         0.102613
 O         2.252202        -0.699532        -0.994195
 C         1.535813         0.174690         0.014552
 C         0.057389         0.068581        -0.013908
 C         2.340055         1.480322        -0.071959
 O         3.579091         1.184848         0.404117
 C         3.563495        -0.040845         1.055132
 C         2.194917        -0.587249         1.243949
 H         3.372665        -3.060506        -0.722783
 H         4.685737        -1.834171        -0.784699
 H         4.431647        -2.716371         0.740373
 H        -0.369161        -0.640537         0.713315
 H        -0.171497         1.101807         0.437642
 H        -0.562689         0.031140        -0.925060
 H         2.451528         1.832993        -1.091057
 H         1.953621         2.282102         0.503605
 H         4.469392        -0.355711         1.647322
 H         1.751752        -1.048788         2.080986
