19
Iteration:  4883charge 0 multiplicity 1
 C         3.837855        -2.539740        -0.042672
 C         3.155802        -1.163047         0.037215
 O         2.446816        -0.481677        -1.086537
 C         1.559467         0.225301        -0.090678
 C         0.163695         0.249430        -0.473783
 C         2.165976         1.523486         0.274276
 O         3.528766         1.231996         0.791436
 C         3.561322        -0.230565         1.114133
 C         2.098894        -0.743159         1.011089
 H         3.304011        -3.335423        -0.626858
 H         4.651665        -2.432503        -0.736137
 H         4.283235        -2.832122         0.889383
 H        -0.343622        -0.695449        -0.592336
 H        -0.465695         0.875928         0.324566
 H         0.115677         0.675612        -1.452433
 H         2.171373         2.248213        -0.558203
 H         1.440571         1.964430         1.027184
 H         4.329072        -0.427317         1.906638
 H         1.440485        -1.307929         1.702738
