19
Iteration:   778
 C         3.738507        -2.563168         0.067195
 C         3.168539        -1.147709         0.079626
 O         2.037619        -0.868455        -0.807939
 C         1.564608         0.098331         0.146378
 C         0.104517         0.057305         0.116570
 C         2.065071         1.539408        -0.171960
 O         3.538329         1.399900         0.140351
 C         3.785222         0.090216         0.683160
 C         2.593294        -0.469904         1.268748
 H         4.647711        -2.707822         0.588738
 H         2.992846        -3.213465         0.671712
 H         3.961606        -2.908841        -0.942125
 H        -0.231520         0.152092        -0.936873
 H        -0.289653        -0.758157         0.685254
 H        -0.270830         0.962482         0.575172
 H         1.871364         1.956409        -1.151999
 H         1.761112         2.191687         0.647134
 H         4.806905        -0.185283         1.068874
 H         2.339800        -0.650923         2.299837
