19
Iteration:  1830charge 0 multiplicity 1
 C         3.693101        -2.583565        -0.124944
 C         3.194184        -1.148454         0.069829
 O         2.336419        -0.670446        -0.923447
 C         1.522672         0.178138         0.142395
 C         0.054529         0.103020        -0.295442
 C         2.073542         1.480667         0.200615
 O         3.574936         1.374814         0.401112
 C         3.724886         0.047876         0.864064
 C         2.371899        -0.665729         1.232431
 H         3.392987        -3.270646         0.651178
 H         3.139270        -2.999378        -0.993636
 H         4.802179        -2.557922        -0.142830
 H        -0.616626        -0.513310         0.361503
 H        -0.283782         1.201426        -0.276966
 H         0.090753        -0.205117        -1.356574
 H         2.056168         2.140863        -0.663848
 H         1.587773         1.878799         1.073876
 H         4.568186        -0.134988         1.559185
 H         2.115440        -1.152254         2.188951
