19
Iteration:   137
 C         3.537039        -2.596150         0.256348
 C         3.131057        -1.165876         0.103453
 O         2.324590        -0.610616        -1.037725
 C         1.557940         0.213323         0.040601
 C         0.105436        -0.210714         0.241639
 C         2.117812         1.627003         0.019879
 O         3.597549         1.333826         0.004797
 C         3.808734         0.095900         0.746853
 C         2.399770        -0.500570         1.154153
 H         4.039621        -2.723863         1.211938
 H         2.622242        -3.232175         0.170583
 H         4.194600        -2.913661        -0.606610
 H        -0.643200         0.197623        -0.526728
 H         0.026488        -1.302368        -0.001704
 H        -0.286924        -0.113203         1.299389
 H         1.838036         2.174834        -0.900587
 H         1.938958         2.191334         0.965078
 H         4.743646        -0.015270         1.184660
 H         1.933926        -0.782140         2.061680
