19
Iteration:  1671charge 0 multiplicity 1
 C         3.670441        -2.613274        -0.011068
 C         3.082475        -1.149473         0.087371
 O         2.336884        -0.537252        -0.985086
 C         1.588157         0.185851         0.052374
 C         0.126314        -0.082964        -0.068369
 C         2.124939         1.524146         0.200404
 O         3.574830         1.308877         0.190690
 C         3.725481         0.024837         0.847065
 C         2.302434        -0.487116         1.238129
 H         4.799591        -2.761691        -0.033419
 H         3.305518        -3.194207         0.881965
 H         3.376591        -3.122418        -0.920848
 H        -0.115885        -0.844980        -0.824164
 H        -0.094264        -0.639074         0.837188
 H        -0.610541         0.747626        -0.084128
 H         2.054106         1.877808        -0.847566
 H         1.782276         2.300246         0.849160
 H         4.544804        -0.018108         1.562072
 H         1.978079        -0.906827         2.237166
