19
Iteration:  2374
 C         3.735372        -2.531977        -0.208446
 C         3.143239        -1.254974         0.124162
 O         2.557397        -0.461484        -1.035229
 C         1.583207         0.193988        -0.046323
 C         0.131144         0.160634        -0.547089
 C         2.152838         1.561880         0.308775
 O         3.547021         1.239277         0.759519
 C         3.538721        -0.103641         1.131177
 C         2.116380        -0.719103         1.085081
 H         2.975732        -3.264818        -0.098168
 H         3.962526        -2.564316        -1.319674
 H         4.639047        -2.784946         0.362077
 H        -0.189308         1.143623        -0.964869
 H         0.117711        -0.624798        -1.339568
 H        -0.536738        -0.066184         0.377052
 H         2.127826         2.240667        -0.626752
 H         1.601960         2.002617         1.175593
 H         4.197096        -0.249944         1.935236
 H         1.679246        -1.356993         1.864213
