19
Iteration:  4483charge 0 multiplicity 1
 C         3.740386        -2.606643         0.167012
 C         3.167898        -1.208686         0.161490
 O         2.454494        -0.526754        -1.033732
 C         1.590105         0.180038        -0.153085
 C         0.128299         0.235483        -0.500854
 C         2.234194         1.499461         0.073151
 O         3.605173         1.219603         0.617383
 C         3.519564        -0.083550         1.112817
 C         2.113476        -0.585596         1.076624
 H         2.870031        -3.169510        -0.126040
 H         4.385082        -3.047426        -0.638208
 H         4.043108        -2.824619         1.210263
 H        -0.102605         1.267350        -0.958913
 H        -0.183872        -0.651353        -1.081729
 H        -0.462179         0.148415         0.460379
 H         2.298177         1.945481        -0.936006
 H         1.663224         2.072862         0.775579
 H         4.168115        -0.383674         1.952673
 H         1.497892        -1.008306         1.869261
