19
Iteration:  4523
 C         3.874328        -2.475097        -0.061404
 C         3.015923        -1.236774         0.229298
 O         2.371703        -0.630858        -0.938512
 C         1.588033         0.203226        -0.110353
 C         0.142804         0.180017        -0.511965
 C         2.391438         1.526271        -0.015486
 O         3.617698         1.192879         0.670723
 C         3.451614        -0.189525         1.142602
 C         1.996909        -0.476608         1.192778
 H         3.342208        -3.187480        -0.842910
 H         4.731238        -1.987789        -0.480200
 H         4.141881        -3.140389         0.716775
 H         0.071778         0.330245        -1.548362
 H        -0.297753        -0.818516        -0.197855
 H        -0.385617         1.035842        -0.177242
 H         2.700689         1.864749        -1.030956
 H         1.810661         2.328015         0.571724
 H         4.187618        -0.457303         1.949873
 H         1.381359        -0.745023         2.062472
