19
Iteration:  4567charge 0 multiplicity 1
 C         3.804903        -2.430849        -0.091518
 C         3.027325        -1.263328         0.243755
 O         2.428883        -0.643164        -0.921317
 C         1.603568         0.146175        -0.038046
 C         0.170555         0.318903        -0.562412
 C         2.314448         1.477796        -0.042096
 O         3.551546         1.196409         0.666770
 C         3.519499        -0.082716         1.144857
 C         2.058657        -0.649321         1.188576
 H         3.224241        -3.196235        -0.725286
 H         4.694507        -1.954454        -0.386473
 H         4.072325        -3.077192         0.708401
 H        -0.121273        -0.378878        -1.321352
 H        -0.607056         0.132510         0.245848
 H         0.033621         1.312479        -0.938837
 H         2.526323         1.895536        -1.050852
 H         1.820796         2.249237         0.622633
 H         4.239837        -0.250304         1.982668
 H         1.491455        -1.194119         1.942745
