19
Iteration:  1117charge 0 multiplicity 1
 C         3.455290        -2.643590         0.091197
 C         3.235497        -1.119731         0.185608
 O         2.227815        -0.791565        -0.739385
 C         1.646657         0.134196         0.232812
 C         0.036426        -0.109015         0.092287
 C         2.049413         1.481384        -0.138318
 O         3.573832         1.377394        -0.096626
 C         3.843378         0.256281         0.685018
 C         2.590147        -0.384226         1.277911
 H         4.220801        -3.005197         0.794963
 H         2.507904        -3.185944         0.231776
 H         3.708483        -2.973595        -0.892326
 H        -0.066390        -0.550723        -0.919508
 H        -0.252965        -0.983879         0.767077
 H        -0.595743         0.750736         0.278978
 H         1.746907         1.763852        -1.150616
 H         1.612523         2.231850         0.577143
 H         4.742989         0.306913         1.236575
 H         2.323941        -0.508027         2.433379
