19
Iteration:   907charge 0 multiplicity 1
 C         3.546740        -2.650665         0.185176
 C         3.212727        -1.188450         0.121099
 O         2.277833        -0.771838        -0.865994
 C         1.535659         0.090118         0.133362
 C         0.138856        -0.020974         0.224901
 C         2.093241         1.508383        -0.090074
 O         3.473146         1.438285        -0.023471
 C         3.815944         0.217242         0.673249
 C         2.551134        -0.504694         1.201342
 H         3.984000        -2.855910         1.102877
 H         2.596159        -3.237223        -0.064965
 H         4.118521        -2.977127        -0.655802
 H        -0.370428         0.060552        -0.784782
 H        -0.427614        -0.846573         0.643644
 H        -0.214522         0.900478         0.758646
 H         1.701862         1.899186        -1.064448
 H         1.586633         2.067387         0.660688
 H         4.907826         0.288551         1.102186
 H         2.423520        -0.774723         2.239333
