19
Iteration:    62charge 0 multiplicity 1
 C         4.002506        -2.339447        -0.155007
 C         3.189388        -1.173977         0.227655
 O         2.078289        -0.978975        -0.753900
 C         1.529757         0.093218         0.114851
 C         0.019190         0.339817         0.138301
 C         2.177783         1.307771        -0.329499
 O         3.550247         1.235819         0.127576
 C         3.690334         0.044444         0.964756
 C         2.335921        -0.400574         1.351146
 H         4.908151        -2.612956         0.356842
 H         3.243469        -3.123991        -0.302362
 H         4.296917        -2.229848        -1.292074
 H        -0.109584         1.442301        -0.138687
 H        -0.495041        -0.179749        -0.713975
 H        -0.451751        -0.132453         1.028651
 H         2.186937         1.311423        -1.456470
 H         1.700495         2.219222         0.129325
 H         4.557003        -0.000299         1.544546
 H         1.810246        -0.675513         2.235412
