19
Iteration:  4433
 C         3.536032        -2.620319         0.066207
 C         3.177780        -1.152626         0.162866
 O         2.453165        -0.594346        -0.990974
 C         1.646168         0.233481        -0.077482
 C         0.181418         0.058419        -0.577994
 C         2.329179         1.538633         0.063937
 O         3.581343         1.264329         0.597650
 C         3.512169        -0.016370         1.133458
 C         2.129583        -0.542226         1.154276
 H         2.653263        -3.362817         0.114529
 H         4.089116        -2.888749        -0.819854
 H         4.201329        -2.772125         0.975990
 H        -0.454760         0.908404        -0.276744
 H         0.310270        -0.125963        -1.620999
 H        -0.377280        -0.784608        -0.124840
 H         2.315408         2.086354        -0.885263
 H         1.627068         1.908993         0.908592
 H         4.237942        -0.232623         1.873230
 H         1.754666        -0.840768         2.158782
