19
Iteration:  1757
 C         3.975883        -2.402302        -0.197996
 C         3.106509        -1.205296         0.144371
 O         2.261363        -0.667723        -0.928237
 C         1.529204         0.156015        -0.016457
 C        -0.051133         0.116699         0.086407
 C         2.260538         1.504056        -0.160185
 O         3.670552         1.222797         0.448940
 C         3.589382        -0.079547         0.986108
 C         2.157780        -0.530430         1.181583
 H         3.611571        -2.924852        -1.114867
 H         5.061671        -2.089194        -0.331554
 H         3.892224        -3.054716         0.665787
 H        -0.234007        -0.947329         0.222088
 H        -0.555978         0.743136         0.774026
 H        -0.377096         0.268700        -0.934623
 H         2.353475         1.738898        -1.264764
 H         1.757558         2.333836         0.489712
 H         4.205605        -0.269336         1.850503
 H         1.605156        -0.796436         2.137331
