19
Iteration:   308charge 0 multiplicity 1
 C         3.571500        -2.560559         0.062893
 C         3.176429        -1.134541         0.111246
 O         2.168270        -0.869356        -0.821420
 C         1.544067         0.100528         0.215676
 C         0.068119        -0.121304         0.170621
 C         2.078621         1.518083        -0.181740
 O         3.639955         1.421573         0.030522
 C         3.793549         0.184601         0.707472
 C         2.568330        -0.347410         1.300093
 H         3.926752        -3.054491         1.020089
 H         2.561118        -3.085993        -0.148297
 H         4.241928        -2.665574        -0.728966
 H        -0.332574         0.707142        -0.414540
 H        -0.135423        -0.930381        -0.547963
 H        -0.551085        -0.224384         1.068129
 H         1.852990         1.746583        -1.228437
 H         1.854754         2.394130         0.488939
 H         4.665336         0.033525         1.320513
 H         2.429849        -0.828194         2.291543
