19
Iteration:  1033charge 0 multiplicity 1
 C         4.009627        -2.505918         0.150702
 C         3.117475        -1.214105         0.152504
 O         2.006687        -0.913183        -0.875100
 C         1.514429         0.132235         0.154215
 C         0.023702         0.243916         0.278797
 C         2.147304         1.407261        -0.293320
 O         3.580515         1.364158         0.099421
 C         3.761357         0.053270         0.621518
 C         2.380833        -0.432301         1.241026
 H         4.590371        -2.676344         1.138029
 H         3.393479        -3.355186         0.029021
 H         4.821296        -2.334356        -0.603769
 H        -0.335373         1.109214        -0.288209
 H        -0.541084        -0.628716        -0.104459
 H        -0.287604         0.366224         1.338361
 H         2.024665         1.391297        -1.362863
 H         1.577657         2.222955         0.186543
 H         4.630250        -0.225264         1.174542
 H         2.311973        -0.706161         2.335306
