19
Iteration:   839charge 0 multiplicity 1
 C         4.021793        -2.335345        -0.072227
 C         3.025428        -1.226746         0.199137
 O         2.009818        -0.879271        -0.783736
 C         1.536020         0.196483         0.180246
 C         0.074337         0.098435         0.330334
 C         2.287961         1.434182        -0.314698
 O         3.621708         1.125723        -0.070832
 C         3.630437         0.077220         0.864034
 C         2.297019        -0.342224         1.284155
 H         4.489000        -2.730825         0.888387
 H         3.570366        -3.016645        -0.704267
 H         4.804676        -1.903605        -0.725781
 H        -0.487654         0.663346        -0.411666
 H        -0.283069        -0.882709         0.037816
 H        -0.075553         0.350232         1.434318
 H         2.084103         1.659376        -1.386956
 H         2.094594         2.310857         0.255348
 H         4.433151        -0.168230         1.412260
 H         1.826347        -0.465163         2.322698
