19
Iteration:  1270charge 0 multiplicity 1
 C         3.704501        -2.578735         0.214067
 C         3.174624        -1.183758         0.154458
 O         2.166028        -0.819872        -0.796211
 C         1.486010         0.120179         0.076903
 C         0.027230         0.004622         0.184939
 C         2.126373         1.446246        -0.174687
 O         3.550757         1.365179        -0.093278
 C         3.807823         0.183629         0.637706
 C         2.547699        -0.368186         1.307273
 H         3.706003        -2.999891         1.275421
 H         3.033710        -3.286630        -0.246772
 H         4.715304        -2.786544        -0.123496
 H        -0.446073         0.931419        -0.098743
 H        -0.309058        -0.853741        -0.384537
 H        -0.259966        -0.176307         1.186773
 H         1.997838         1.812218        -1.186687
 H         1.813044         2.188252         0.584703
 H         4.755228         0.245990         1.223467
 H         2.081507        -0.689194         2.284298
