19
Iteration:  2391charge 0 multiplicity 1
 C         3.577839        -2.631785        -0.320541
 C         3.293446        -1.105330         0.087018
 O         2.602276        -0.496417        -0.937638
 C         1.597996         0.144730        -0.069294
 C         0.233440         0.148796        -0.558128
 C         2.120401         1.489099         0.337157
 O         3.459053         1.330412         0.678344
 C         3.500609        -0.110007         1.164004
 C         2.182844        -0.713662         1.170794
 H         2.684733        -3.289947        -0.019976
 H         3.995883        -2.499868        -1.290982
 H         4.445187        -3.020586         0.236594
 H        -0.023260         1.195296        -0.753764
 H         0.015975        -0.381546        -1.482894
 H        -0.514191        -0.270978         0.010500
 H         2.066977         2.162844        -0.477502
 H         1.575479         1.800791         1.288002
 H         4.253302        -0.242722         2.052716
 H         1.499746        -0.858034         1.974736
