19
Iteration:  3336
 C         3.582558        -2.647208        -0.050962
 C         3.140235        -1.213092         0.247788
 O         2.423911        -0.667267        -0.990125
 C         1.643451         0.155939        -0.068060
 C         0.122116         0.072985        -0.599394
 C         2.286932         1.576092         0.061850
 O         3.632390         1.368762         0.666073
 C         3.545234         0.029740         1.188813
 C         2.146638        -0.573849         1.158085
 H         2.787012        -3.132259        -0.554147
 H         4.440019        -2.733441        -0.817554
 H         3.910388        -3.203022         0.876630
 H         0.227908         0.465870        -1.636585
 H        -0.345232        -0.857637        -0.733844
 H        -0.501682         0.731376        -0.036431
 H         2.615545         2.106619        -0.833899
 H         1.474566         2.105891         0.684825
 H         4.274366        -0.049560         1.964048
 H         1.666387        -0.865581         2.137674
