19
Iteration:   127charge 0 multiplicity 1
 C         3.567681        -2.473142         0.215063
 C         3.124714        -1.110805         0.043268
 O         2.261655        -0.680250        -0.975582
 C         1.577029         0.121324         0.108668
 C         0.080274        -0.187077         0.182137
 C         2.194924         1.532498         0.007602
 O         3.642850         1.382277         0.001705
 C         3.712336         0.030231         0.728185
 C         2.372915        -0.457518         1.177423
 H         4.017628        -2.571935         1.189091
 H         2.690393        -3.146360         0.222510
 H         4.365175        -2.879628        -0.523917
 H        -0.546304         0.603977        -0.378299
 H         0.060928        -1.249801        -0.161093
 H        -0.093890        -0.149817         1.291338
 H         1.936844         2.141781        -0.890548
 H         1.914696         2.151743         0.917573
 H         4.522938        -0.083397         1.378193
 H         2.151524        -0.910984         2.074038
