19
Iteration:  4257charge 0 multiplicity 1
 C         3.485254        -2.630541        -0.040357
 C         3.078976        -1.200457         0.293246
 O         2.608900        -0.578244        -0.902364
 C         1.546716         0.190252        -0.045302
 C         0.101969        -0.022967        -0.521128
 C         2.355509         1.624850        -0.050798
 O         3.652026         1.300673         0.511248
 C         3.510117        -0.058837         1.135689
 C         2.126769        -0.523006         1.266302
 H         2.673852        -3.334420         0.217610
 H         3.899922        -2.685827        -1.062941
 H         4.381366        -2.851170         0.650610
 H        -0.761834         0.047676         0.263762
 H        -0.148436         0.785957        -1.137129
 H         0.326824        -0.893250        -1.156259
 H         2.478523         2.083548        -1.051662
 H         1.902592         2.428130         0.446281
 H         4.279843        -0.071286         1.900300
 H         1.388810        -1.019401         1.858654
