19
Iteration:  2393
 C         3.555186        -2.634656        -0.324109
 C         3.324034        -1.120735         0.086944
 O         2.594586        -0.491858        -0.942594
 C         1.606606         0.144530        -0.071674
 C         0.243902         0.143316        -0.579269
 C         2.098504         1.492875         0.338788
 O         3.464473         1.332343         0.677513
 C         3.501713        -0.112619         1.182533
 C         2.184776        -0.705089         1.195258
 H         2.692864        -3.233306        -0.094978
 H         3.969954        -2.516379        -1.285166
 H         4.408431        -2.990199         0.224564
 H        -0.052492         1.212264        -0.704866
 H         0.039239        -0.351064        -1.539589
 H        -0.482130        -0.296153         0.099969
 H         1.960090         2.149565        -0.523568
 H         1.614374         1.778043         1.250161
 H         4.252882        -0.216184         2.014187
 H         1.535592        -0.874929         1.980522
