19
Iteration:  4337
 C         3.821503        -2.533027         0.274181
 C         3.096844        -1.222107         0.104243
 O         2.365304        -0.691433        -1.063902
 C         1.552521         0.180063        -0.056361
 C         0.202266         0.356690        -0.424163
 C         2.255215         1.575673        -0.061463
 O         3.525810         1.221371         0.547120
 C         3.532804        -0.129303         1.105445
 C         2.133382        -0.665992         1.115981
 H         3.241480        -3.418128        -0.172266
 H         4.805855        -2.434528        -0.041686
 H         3.812066        -2.857142         1.313104
 H        -0.469460        -0.033885         0.265123
 H         0.196671         1.445885        -0.650512
 H        -0.096088        -0.220751        -1.311882
 H         2.425554         1.987485        -1.056973
 H         1.821528         2.280702         0.577945
 H         4.373885        -0.399200         1.740574
 H         1.542085        -0.982134         2.019694
