19
Iteration:   720
 C         3.504789        -2.526158         0.029169
 C         3.104459        -1.095275         0.177856
 O         2.328563        -0.663403        -0.949690
 C         1.576143         0.180135         0.159231
 C         0.195535        -0.223941         0.277645
 C         2.142918         1.513448        -0.109408
 O         3.542743         1.231829        -0.084899
 C         3.755061         0.139156         0.784257
 C         2.401428        -0.364099         1.288142
 H         4.351254        -2.706919         0.756337
 H         2.669978        -3.192003         0.248613
 H         3.765086        -2.844981        -0.981744
 H        -0.424042        -0.192586        -0.640861
 H         0.152419        -1.278653         0.578743
 H        -0.168906         0.358570         1.178527
 H         1.856175         1.995250        -1.106140
 H         2.031578         2.339349         0.679706
 H         4.673410         0.244065         1.348449
 H         2.038667        -0.694810         2.298539
