19
Iteration:   763
 C         3.598219        -2.598330         0.126837
 C         3.102709        -1.212410         0.066437
 O         2.138014        -0.854188        -0.890946
 C         1.573747         0.131070         0.183738
 C         0.038352        -0.079366         0.147137
 C         2.209168         1.527740        -0.017640
 O         3.579620         1.494848         0.118703
 C         3.841294         0.163175         0.558896
 C         2.532316        -0.417656         1.270690
 H         4.628440        -2.557304         0.602061
 H         2.918565        -3.225826         0.647622
 H         3.633760        -3.009867        -0.881174
 H        -0.145646        -0.157148        -0.951415
 H        -0.222440        -1.007396         0.726927
 H        -0.699915         0.758854         0.449405
 H         1.974358         1.801070        -1.111215
 H         1.586288         2.298048         0.595837
 H         4.798666         0.101171         1.029890
 H         2.345263        -0.821525         2.314786
