19
Iteration:  2519
 C         3.998341        -2.442860        -0.186608
 C         3.144475        -1.201009         0.098233
 O         2.403360        -0.653353        -0.985945
 C         1.511304         0.066454         0.043517
 C         0.118908         0.439664        -0.539410
 C         2.270108         1.537388         0.140748
 O         3.463362         1.242638         0.805617
 C         3.471510        -0.121354         1.063157
 C         2.095434        -0.840612         1.160940
 H         3.486215        -3.148828        -0.823548
 H         4.745426        -2.059624        -0.879248
 H         4.560688        -2.702359         0.697318
 H        -0.727412        -0.029327         0.047852
 H        -0.016051         1.569174        -0.520693
 H        -0.125904         0.031901        -1.576760
 H         2.264675         2.028752        -0.847826
 H         1.589103         2.121519         0.739453
 H         4.302247        -0.519003         1.790104
 H         1.776531        -1.384431         2.019971
