19
Iteration:  1124
 C         3.463150        -2.563945         0.118015
 C         3.187609        -1.146352         0.098468
 O         2.163819        -0.814055        -0.755567
 C         1.596708         0.128126         0.223161
 C         0.077960        -0.101824         0.076577
 C         2.109565         1.437103        -0.107282
 O         3.525700         1.385429        -0.073982
 C         3.918416         0.220587         0.740919
 C         2.590621        -0.359598         1.285568
 H         4.327207        -2.793605         0.707396
 H         2.608279        -3.207146         0.552594
 H         3.709375        -2.934364        -0.908932
 H         0.079027        -0.566643        -0.906085
 H        -0.390405        -0.864747         0.666339
 H        -0.567788         0.766509         0.199724
 H         1.883393         1.601651        -1.203827
 H         1.592102         2.216197         0.543233
 H         4.887042         0.390869         1.207962
 H         2.560733        -0.518944         2.290293
