19
Iteration:   660charge 0 multiplicity 1
 C         3.939228        -2.401637        -0.006596
 C         3.077511        -1.245101         0.178712
 O         1.977307        -0.917773        -0.765827
 C         1.512796        -0.006059         0.189855
 C         0.043935         0.266925         0.217795
 C         2.183510         1.374644        -0.272635
 O         3.564768         1.428328         0.084113
 C         3.751075         0.103162         0.661749
 C         2.495394        -0.539451         1.273908
 H         4.200222        -2.705473         0.973164
 H         3.412203        -3.317771        -0.410411
 H         4.869504        -2.077253        -0.475708
 H        -0.145908         1.205765        -0.384054
 H        -0.532747        -0.644584        -0.175258
 H        -0.346965         0.561444         1.206571
 H         1.978734         1.466766        -1.334074
 H         1.719996         2.244857         0.344035
 H         4.744109         0.031738         1.059276
 H         2.422214        -0.976145         2.294035
