19
Iteration:  4227
 C         3.605417        -2.562090         0.122974
 C         3.112082        -1.202646         0.162477
 O         2.407956        -0.624562        -1.037074
 C         1.615903         0.155022        -0.139660
 C         0.190104         0.151406        -0.459920
 C         2.284853         1.522541         0.017920
 O         3.595718         1.281235         0.616698
 C         3.525599        -0.088928         1.087831
 C         2.195957        -0.528216         1.168780
 H         2.813485        -3.385821         0.186377
 H         4.081525        -2.845120        -0.748816
 H         4.309030        -2.550652         1.014156
 H        -0.482266         0.712414         0.233888
 H         0.173398         0.595279        -1.497784
 H        -0.098827        -0.917135        -0.604712
 H         2.464738         2.021928        -0.960074
 H         1.652495         2.153603         0.764818
 H         4.208748        -0.352870         1.939334
 H         1.514564        -0.705765         1.986994
