19
Iteration:  2744charge 0 multiplicity 1
 C         3.810690        -2.550518        -0.058163
 C         3.148518        -1.189386         0.088583
 O         2.399790        -0.646113        -1.054298
 C         1.518785         0.167126         0.000946
 C         0.080870         0.270005        -0.564993
 C         2.254003         1.537385         0.095784
 O         3.522597         1.330893         0.806862
 C         3.559012        -0.063756         1.119939
 C         2.194891        -0.739626         1.145368
 H         3.057981        -3.356022        -0.030626
 H         4.418128        -2.519708        -0.989328
 H         4.424054        -2.772280         0.864335
 H        -0.583333         0.852393         0.094594
 H         0.173488         0.723579        -1.516594
 H        -0.324226        -0.784111        -0.761036
 H         2.420311         1.833698        -0.934916
 H         1.771019         2.289781         0.712549
 H         4.296448        -0.537687         1.754659
 H         1.834165        -1.260961         1.959513
