19
Iteration:  3469
 C         3.717867        -2.538276        -0.055823
 C         3.089670        -1.255680         0.254512
 O         2.550807        -0.668798        -0.932864
 C         1.538769         0.172957        -0.110148
 C         0.021801         0.236734        -0.470538
 C         2.410085         1.511075        -0.108031
 O         3.600627         1.270205         0.686440
 C         3.514151        -0.048186         1.204379
 C         2.036167        -0.609353         1.114639
 H         3.015159        -3.393757        -0.025264
 H         4.192319        -2.306586        -1.058366
 H         4.516636        -2.652673         0.716718
 H        -0.265087         1.139587        -1.074327
 H        -0.199745        -0.641738        -1.038479
 H        -0.720462         0.286903         0.357725
 H         2.768508         1.722753        -1.169464
 H         1.784887         2.240400         0.458453
 H         4.203919        -0.090573         2.075170
 H         1.395273        -0.965525         1.876714
