19
Iteration:  3199charge 0 multiplicity 1
 C         3.635650        -2.576273         0.010058
 C         3.079211        -1.182244         0.133504
 O         2.376974        -0.582332        -0.970219
 C         1.616541         0.171580        -0.035796
 C         0.182562         0.068640        -0.640718
 C         2.304240         1.559106         0.040858
 O         3.628408         1.313996         0.712306
 C         3.521851        -0.034867         1.135594
 C         2.178788        -0.604689         1.227689
 H         3.085903        -3.129520        -0.769826
 H         4.605855        -2.579556        -0.358496
 H         3.634491        -2.999901         1.006302
 H         0.350793         0.010928        -1.750819
 H        -0.276471        -0.881326        -0.377390
 H        -0.588418         0.883089        -0.380721
 H         2.438035         2.025741        -0.989158
 H         1.476900         2.119707         0.559444
 H         4.359915        -0.298424         1.732334
 H         1.654701        -1.069072         2.126739
