19
Iteration:  3168
 C         3.617021        -2.636484         0.050114
 C         3.222441        -1.200988         0.146999
 O         2.707972        -0.570456        -1.024449
 C         1.644705         0.216314        -0.185340
 C         0.136164         0.121224        -0.364877
 C         2.213974         1.619682         0.026776
 O         3.563140         1.247488         0.602385
 C         3.364971        -0.072211         1.173790
 C         2.076938        -0.574383         1.071822
 H         2.792276        -3.211710        -0.467109
 H         4.544490        -2.779348        -0.426142
 H         3.626720        -3.145517         0.984963
 H        -0.270759         0.308979        -1.316808
 H        -0.279496        -0.848281        -0.087633
 H        -0.334873         0.803269         0.318382
 H         2.459082         2.178940        -0.845089
 H         1.453574         1.946829         0.760116
 H         4.007587        -0.169490         2.016202
 H         1.416278        -0.991571         1.894048
