19
Iteration:  3303charge 0 multiplicity 1
 C         3.713823        -2.539794         0.159513
 C         3.070642        -1.227555         0.103780
 O         2.411660        -0.583463        -1.066678
 C         1.587042         0.214336        -0.116211
 C         0.165903         0.165345        -0.472545
 C         2.350714         1.510996        -0.047150
 O         3.519801         1.261750         0.784061
 C         3.518093        -0.114026         1.067150
 C         2.142443        -0.611245         1.102865
 H         2.971333        -3.256678         0.357789
 H         4.403602        -2.588991        -0.755248
 H         4.331187        -2.634762         1.101820
 H         0.147454         0.967081        -1.208123
 H        -0.030515        -0.814642        -0.813190
 H        -0.415867         0.504658         0.337948
 H         2.690786         1.822978        -1.048744
 H         1.598535         2.277821         0.402354
 H         4.336043        -0.326654         1.745577
 H         1.527240        -0.983773         1.949615
