19
Iteration:  2898
 C         3.908975        -2.470273         0.135549
 C         3.051174        -1.231116         0.176925
 O         2.416299        -0.642656        -1.053091
 C         1.628026         0.172021        -0.082823
 C         0.091232         0.355464        -0.381913
 C         2.326389         1.530418        -0.024935
 O         3.576233         1.154282         0.673405
 C         3.498140        -0.081075         1.069783
 C         1.965966        -0.722547         1.035632
 H         3.250409        -3.281394         0.007087
 H         4.574486        -2.430935        -0.777165
 H         4.547804        -2.373158         0.994556
 H        -0.246197        -0.231332        -1.274013
 H        -0.432324        -0.199398         0.493072
 H        -0.367157         1.367158        -0.507220
 H         2.576421         1.887985        -1.077012
 H         1.784010         2.442417         0.410130
 H         4.350663        -0.200410         1.826318
 H         1.490757        -1.213434         1.956041
