19
Iteration:  4056charge 0 multiplicity 1
 C         3.623460        -2.568238         0.224887
 C         3.059294        -1.148319         0.206510
 O         2.482373        -0.669709        -1.076334
 C         1.605701         0.257625        -0.174650
 C         0.062120         0.156493        -0.515462
 C         2.309290         1.618787         0.066488
 O         3.622461         1.208861         0.604234
 C         3.607618        -0.056330         1.081280
 C         2.118437        -0.634014         1.098308
 H         2.845902        -3.299664         0.530630
 H         4.136024        -2.828593        -0.781264
 H         4.444213        -2.682988         0.948508
 H        -0.443979        -0.066592         0.385920
 H        -0.298493         1.083295        -1.120456
 H        -0.171676        -0.759931        -1.119344
 H         2.565855         2.303974        -0.782031
 H         1.823331         2.090463         1.010278
 H         4.350847        -0.353640         1.862567
 H         1.494978        -1.026968         1.879156
