19
Iteration:  2632
 C         3.705416        -2.592733        -0.106639
 C         3.162988        -1.127109         0.024731
 O         2.416669        -0.581319        -1.110907
 C         1.628819         0.106624        -0.056111
 C         0.145034         0.142347        -0.594222
 C         2.226198         1.590598         0.251307
 O         3.473970         1.353487         0.861417
 C         3.574802        -0.066522         1.089824
 C         2.248467        -0.689232         1.150960
 H         2.940520        -3.155077        -0.738462
 H         4.680461        -2.907495        -0.472182
 H         3.646352        -3.022200         0.891744
 H         0.075031         0.091533        -1.695028
 H        -0.369365        -0.732021        -0.107796
 H        -0.482425         0.958694        -0.205623
 H         2.298126         2.227100        -0.577032
 H         1.665528         2.050881         1.072512
 H         4.333044        -0.422112         1.778864
 H         1.715737        -1.206326         2.044442
