19
Iteration:  2286charge 0 multiplicity 1
 C         3.950059        -2.382619        -0.374415
 C         3.216505        -1.227908         0.071361
 O         2.411435        -0.575899        -0.932403
 C         1.534648         0.073296        -0.008612
 C         0.128329         0.300552        -0.521899
 C         2.233764         1.513095         0.214404
 O         3.488456         1.270906         0.861901
 C         3.450212        -0.238369         1.178758
 C         2.098869        -0.725694         1.163638
 H         3.496756        -2.587245        -1.313177
 H         5.019735        -2.408055        -0.667650
 H         3.564985        -3.185906         0.258853
 H         0.254141         0.185125        -1.635394
 H        -0.770244        -0.295719        -0.263377
 H        -0.103362         1.398154        -0.408891
 H         2.343140         1.990275        -0.831403
 H         1.621831         2.330843         0.661233
 H         4.322105        -0.461822         1.894671
 H         1.552473        -1.242772         1.891759
