19
Iteration:  1742charge 0 multiplicity 1
 C         3.926372        -2.516958        -0.149599
 C         3.129002        -1.198636         0.104278
 O         2.279763        -0.739824        -0.972180
 C         1.493788         0.203769         0.131150
 C         0.012049         0.082159        -0.061110
 C         2.278636         1.539763        -0.075515
 O         3.595075         1.340572         0.384124
 C         3.541097        -0.033617         0.991677
 C         2.213790        -0.568762         1.250232
 H         3.778999        -2.748428        -1.206119
 H         5.014565        -2.346624        -0.125748
 H         3.723702        -3.498301         0.346441
 H        -0.402829        -0.942086        -0.062763
 H        -0.220040         0.431876         1.017086
 H        -0.476807         0.814533        -0.717883
 H         2.314277         1.742261        -1.142906
 H         1.856353         2.431394         0.382868
 H         4.529051        -0.224623         1.542794
 H         1.792278        -0.768901         2.192873
