19
Iteration:  4193
 C         3.822403        -2.561492         0.153870
 C         3.162174        -1.263380         0.159917
 O         2.400236        -0.688064        -1.006694
 C         1.612743         0.163340        -0.136578
 C         0.066139         0.400800        -0.409343
 C         2.286955         1.576050         0.019872
 O         3.581772         1.226459         0.547270
 C         3.515915        -0.078322         1.103437
 C         2.086009        -0.692575         1.062261
 H         3.146218        -3.408704        -0.178762
 H         4.801495        -2.453468        -0.224631
 H         4.047203        -2.865708         1.245250
 H        -0.522476         1.378956        -0.186206
 H         0.021239         0.184839        -1.458965
 H        -0.563709        -0.414809         0.032069
 H         2.396999         2.137570        -0.963026
 H         1.812375         2.312574         0.783578
 H         4.010696        -0.423147         2.011023
 H         1.563561        -1.004556         1.956681
