19
Iteration:  2627
 C         3.671198        -2.582301        -0.124341
 C         3.214301        -1.129648         0.015139
 O         2.452966        -0.586855        -1.106252
 C         1.635210         0.166695        -0.068071
 C         0.117148         0.098899        -0.547297
 C         2.226838         1.600580         0.259954
 O         3.477261         1.350500         0.865478
 C         3.577130        -0.108790         1.089399
 C         2.230224        -0.671320         1.136427
 H         2.838219        -3.088681        -0.546361
 H         4.645973        -2.932507        -0.527366
 H         3.568859        -3.005214         0.898418
 H         0.139133        -0.014511        -1.642908
 H        -0.456739        -0.710016        -0.087375
 H        -0.439505         1.053768        -0.394067
 H         2.236528         2.241605        -0.714590
 H         1.443608         1.917432         1.024305
 H         4.274250        -0.332790         1.920577
 H         1.858742        -1.231682         1.906252
