19
Iteration:  4082
 C         3.645764        -2.718963         0.195816
 C         3.104079        -1.160068         0.117809
 O         2.495807        -0.545298        -1.065574
 C         1.632530         0.179379        -0.070433
 C         0.203759         0.158297        -0.450430
 C         2.244471         1.579839         0.011493
 O         3.591828         1.272276         0.599098
 C         3.512832        -0.066371         1.070355
 C         2.091292        -0.578377         1.096983
 H         2.781791        -3.379146         0.106320
 H         4.381218        -3.084349        -0.551157
 H         4.101550        -2.811024         1.191907
 H        -0.407736         0.649187         0.408306
 H         0.172995         0.677077        -1.369355
 H        -0.263346        -0.806780        -0.537606
 H         2.385436         2.107074        -0.972886
 H         1.763612         2.087488         0.892976
 H         4.176858        -0.375813         1.865324
 H         1.346046        -0.818067         1.878767
