19
Iteration:  1465
 C         3.605508        -2.619010         0.095585
 C         3.256626        -1.182950         0.083072
 O         2.235984        -0.818026        -0.858857
 C         1.525291         0.181559         0.131104
 C         0.041155         0.001446         0.167303
 C         2.073862         1.508016        -0.159514
 O         3.559977         1.410032         0.094318
 C         3.796173         0.133466         0.704356
 C         2.505057        -0.473469         1.299106
 H         4.438344        -2.838031        -0.628053
 H         3.975749        -2.917270         1.051387
 H         2.781251        -3.262660        -0.131871
 H        -0.309109        -0.596981         1.028774
 H        -0.406469         0.992810         0.011927
 H        -0.104437        -0.581402        -0.771151
 H         1.872656         1.921488        -1.167355
 H         1.692638         2.350399         0.480005
 H         4.683691         0.143146         1.370255
 H         2.047567        -0.674228         2.236236
