19
Iteration:  1587
 C         3.966406        -2.517174        -0.084523
 C         3.152133        -1.157686         0.143733
 O         2.125613        -0.861796        -0.849605
 C         1.510570         0.060947         0.109603
 C        -0.008791         0.261656         0.036968
 C         2.189555         1.450667        -0.143412
 O         3.519160         1.331513         0.275953
 C         3.721137         0.104932         0.838011
 C         2.352408        -0.585484         1.287632
 H         3.775376        -3.480635         0.436877
 H         3.806605        -2.625070        -1.109876
 H         5.058441        -2.337041        -0.193744
 H         0.018454         1.090452        -0.688734
 H        -0.574871        -0.600651        -0.375041
 H        -0.515861         0.671828         0.948034
 H         2.241570         1.732804        -1.193037
 H         1.605276         2.225667         0.460326
 H         4.626099        -0.056514         1.408466
 H         2.080408        -0.962267         2.341679
