19
Iteration:  1748charge 0 multiplicity 1
 C         3.977972        -2.501884        -0.158364
 C         3.123834        -1.198568         0.084307
 O         2.277689        -0.715430        -0.952515
 C         1.515731         0.205524         0.081627
 C        -0.017369         0.084822         0.007611
 C         2.258966         1.512816        -0.121242
 O         3.634981         1.315351         0.408232
 C         3.576886        -0.048645         1.019268
 C         2.166062        -0.561334         1.212999
 H         3.566952        -2.697683        -1.193719
 H         5.025126        -2.182545        -0.180778
 H         3.818811        -3.375348         0.466650
 H        -0.400903        -0.936892         0.053585
 H        -0.403896         0.580142         0.885856
 H        -0.549661         0.617003        -0.817869
 H         2.189202         1.738088        -1.215465
 H         1.994783         2.478058         0.416282
 H         4.308828        -0.458444         1.654687
 H         1.672242        -0.679562         2.236055
