19
Iteration:  4499
 C         3.703913        -2.509344         0.070547
 C         3.069814        -1.170207         0.134910
 O         2.468043        -0.619495        -1.018836
 C         1.563828         0.182080        -0.044485
 C         0.145037         0.201313        -0.484491
 C         2.375842         1.585539         0.021854
 O         3.595247         1.214702         0.584080
 C         3.465891        -0.102600         1.150926
 C         2.065791        -0.692584         1.155228
 H         3.169415        -3.437084        -0.294232
 H         4.601859        -2.224136        -0.403306
 H         4.057191        -2.785138         1.080491
 H         0.060711         0.933155        -1.274115
 H        -0.125672        -0.804110        -0.895081
 H        -0.521471         0.585854         0.275895
 H         2.613137         1.990328        -0.965887
 H         1.866286         2.373011         0.663323
 H         4.182180        -0.221583         1.958254
 H         1.452818        -1.270121         1.871765
