19
Iteration:  4153charge 0 multiplicity 1
 C         3.784698        -2.409631        -0.051518
 C         2.958051        -1.306622         0.282925
 O         2.429522        -0.722555        -0.850448
 C         1.569979         0.271469        -0.073571
 C         0.119225         0.243192        -0.493007
 C         2.351966         1.586366        -0.082676
 O         3.669916         1.169000         0.554836
 C         3.497312        -0.144204         1.091482
 C         2.038394        -0.593729         1.214300
 H         3.537997        -2.897717        -1.016630
 H         4.832299        -2.085449        -0.207390
 H         3.780288        -3.062043         0.800903
 H        -0.323803         1.173110        -0.549222
 H         0.284667        -0.253402        -1.513888
 H        -0.577009        -0.344426         0.117861
 H         2.580014         1.929781        -1.071042
 H         1.743966         2.144854         0.560423
 H         4.232436        -0.084313         1.940656
 H         1.531772        -0.837769         2.135591
