19
Iteration:   340
 C         3.429172        -2.679867         0.156790
 C         3.206753        -1.163951         0.117938
 O         2.356367        -0.634943        -0.927739
 C         1.579722         0.134791         0.116450
 C         0.144897        -0.242553         0.208203
 C         2.047663         1.543489        -0.068404
 O         3.563619         1.364478        -0.035268
 C         3.758385         0.164663         0.701461
 C         2.517007        -0.307435         1.256012
 H         4.103426        -3.019026         1.016053
 H         2.373176        -3.128095         0.247694
 H         3.782053        -3.052410        -0.769449
 H        -0.448630         0.442165        -0.412678
 H         0.003355        -1.305199        -0.060979
 H        -0.276837        -0.114941         1.225431
 H         1.772338         2.038846        -0.997398
 H         1.833312         2.196644         0.798559
 H         4.656753         0.147456         1.306333
 H         2.335065        -0.660555         2.281732
