19
Iteration:   218charge 0 multiplicity 1
 C         4.017145        -2.501668        -0.135857
 C         3.067607        -1.251786         0.200258
 O         2.098208        -0.905772        -0.767161
 C         1.499192         0.162515         0.261243
 C         0.023297         0.203868         0.164929
 C         2.215121         1.482097        -0.219013
 O         3.588111         1.331987         0.096350
 C         3.679031         0.074899         0.732665
 C         2.331938        -0.481610         1.327904
 H         4.976376        -2.572408         0.477860
 H         3.493627        -3.472256        -0.071778
 H         4.324253        -2.277546        -1.184891
 H        -0.240195         0.047117        -0.923861
 H        -0.452758        -0.660483         0.676789
 H        -0.561450         1.142274         0.347757
 H         2.003144         1.492414        -1.309719
 H         1.860999         2.473870         0.191246
 H         4.662893        -0.139254         1.221719
 H         1.991961        -0.524198         2.434768
