19
Iteration:  4098
 C         3.572645        -2.575751         0.105488
 C         3.074398        -1.272383         0.190636
 O         2.507726        -0.592136        -1.006503
 C         1.636104         0.216115        -0.131653
 C         0.186983         0.194532        -0.478690
 C         2.308930         1.600429         0.032889
 O         3.536441         1.251589         0.565064
 C         3.545702        -0.050320         1.134449
 C         2.146405        -0.645019         1.176811
 H         2.793526        -3.293939        -0.246820
 H         4.480466        -2.489471        -0.496746
 H         3.874396        -3.026661         1.066968
 H        -0.380203         0.933103         0.034983
 H         0.035838         0.287811        -1.602706
 H        -0.196717        -0.822336        -0.191265
 H         2.402939         1.909769        -1.018306
 H         1.615766         2.280616         0.495794
 H         4.405491        -0.111836         1.832558
 H         1.662671        -1.229745         1.945576
