19
Iteration:  3797
 C         3.790461        -2.516386         0.204140
 C         2.995050        -1.267512         0.174234
 O         2.347359        -0.747021        -1.027145
 C         1.580821         0.159219        -0.105679
 C         0.140167         0.387648        -0.474241
 C         2.296439         1.514212        -0.024887
 O         3.610983         1.234462         0.595662
 C         3.589785        -0.035285         1.080212
 C         2.136446        -0.623037         1.157894
 H         3.102175        -3.350622         0.095961
 H         4.659662        -2.465722        -0.558250
 H         4.298290        -2.628429         1.140346
 H        -0.511830         0.063131         0.292500
 H        -0.048894         1.424454        -0.948103
 H        -0.107873        -0.398326        -1.241000
 H         2.388188         1.873686        -1.115401
 H         1.616828         2.078649         0.684927
 H         4.504954        -0.089378         1.660830
 H         1.463831        -1.142135         1.867744
