19
Iteration:   275
 C         3.979275        -2.447878         0.051783
 C         3.063357        -1.225026         0.171983
 O         2.138773        -0.868131        -0.832702
 C         1.502500         0.161531         0.113176
 C        -0.023512         0.206900         0.301677
 C         2.153394         1.556111        -0.272818
 O         3.573777         1.223505         0.011984
 C         3.697667         0.030005         0.763082
 C         2.415471        -0.494365         1.251705
 H         4.656552        -2.578797         0.943640
 H         3.492296        -3.450346        -0.162710
 H         4.650234        -2.344172        -0.750935
 H        -0.427195         1.004184        -0.287670
 H        -0.414229        -0.739639        -0.092371
 H        -0.234467         0.249075         1.369779
 H         2.024642         1.755643        -1.338558
 H         1.792541         2.418835         0.362567
 H         4.571519        -0.021032         1.343265
 H         2.068944        -0.838960         2.274969
