19
Iteration:   438
 C         4.022015        -2.393147        -0.249625
 C         3.143861        -1.218246         0.205338
 O         2.072048        -1.001242        -0.725825
 C         1.486995         0.100139         0.251423
 C        -0.002480         0.365748         0.160914
 C         2.223341         1.293024        -0.287580
 O         3.547002         1.270930         0.084079
 C         3.649647         0.116747         0.864800
 C         2.368854        -0.423774         1.361543
 H         4.677732        -2.601937         0.608839
 H         3.441064        -3.151032        -0.740483
 H         4.644060        -2.143059        -1.037537
 H        -0.199987         0.594759        -0.887999
 H        -0.671665        -0.453263         0.490422
 H        -0.352674         1.186271         0.798370
 H         2.367902         1.198228        -1.381237
 H         1.783511         2.233399        -0.034564
 H         4.593911         0.044752         1.541878
 H         2.140897        -0.727310         2.342522
