19
Iteration:   529charge 0 multiplicity 1
 C         3.475085        -2.633714         0.196234
 C         3.278042        -1.110169         0.064159
 O         2.273649        -0.735389        -0.927922
 C         1.552622         0.080345         0.129394
 C         0.138609        -0.101914         0.173365
 C         2.053740         1.471208         0.060234
 O         3.562144         1.404295        -0.090253
 C         3.790987         0.211477         0.668818
 C         2.556125        -0.421413         1.258816
 H         4.093979        -2.838148         0.982304
 H         2.423175        -2.880393         0.419274
 H         3.554579        -3.250964        -0.663711
 H        -0.133397         0.152622        -0.861097
 H        -0.226568        -1.089727         0.462584
 H        -0.402177         0.594035         0.803494
 H         1.653691         2.006873        -0.766660
 H         1.633227         1.895161         0.954641
 H         4.717469         0.070894         1.118328
 H         2.230664        -0.709355         2.316245
