19
Iteration:   620
 C         4.067450        -2.418355        -0.067895
 C         3.062449        -1.257356         0.180236
 O         2.088172        -0.889610        -0.790665
 C         1.516667         0.100290         0.094964
 C         0.005609         0.233095         0.346703
 C         2.207880         1.405713        -0.301006
 O         3.577481         1.264627         0.046190
 C         3.645563         0.066536         0.738547
 C         2.317181        -0.474281         1.278163
 H         4.724014        -2.533477         0.844173
 H         3.659480        -3.343996        -0.367971
 H         4.697388        -2.181724        -0.971288
 H        -0.364559         0.858340        -0.452936
 H        -0.556467        -0.628195         0.720539
 H        -0.050385         0.941444         1.208652
 H         2.168616         1.715002        -1.376611
 H         1.807632         2.244219         0.248406
 H         4.353553         0.155784         1.615319
 H         2.073115        -0.515844         2.304673
