19
Iteration:  4536charge 0 multiplicity 1
 C         3.864929        -2.501662        -0.185061
 C         3.102441        -1.260969         0.191000
 O         2.366501        -0.731232        -0.930773
 C         1.555561         0.180062        -0.051504
 C         0.113951         0.209176        -0.543284
 C         2.433617         1.542005        -0.022130
 O         3.635607         1.161792         0.688616
 C         3.413256        -0.058257         1.210282
 C         1.969230        -0.439336         1.230350
 H         3.537886        -3.149032        -1.120432
 H         4.926286        -2.181165        -0.501493
 H         4.179846        -2.970842         0.762505
 H         0.141599        -0.234623        -1.566039
 H        -0.654067        -0.473638        -0.083693
 H        -0.295067         1.175394        -0.220044
 H         2.656412         2.051146        -1.015910
 H         1.902696         2.374735         0.587552
 H         3.906637        -0.267221         2.180211
 H         1.276226        -0.678075         2.020604
