19
Iteration:    54
 C         3.972770        -2.279859        -0.152463
 C         3.131076        -1.117913         0.233042
 O         2.067704        -1.014135        -0.744859
 C         1.510932         0.115926         0.112702
 C        -0.053670         0.284319         0.129407
 C         2.256327         1.285113        -0.323298
 O         3.641055         1.213773         0.123754
 C         3.701471         0.047683         0.921207
 C         2.297679        -0.397495         1.344586
 H         4.880570        -2.492700         0.347029
 H         3.443248        -3.208020        -0.172422
 H         4.256637        -1.930047        -1.210457
 H        -0.336006         1.361855         0.213220
 H        -0.377338        -0.252864        -0.741426
 H        -0.437200        -0.045350         1.077741
 H         2.211999         1.390613        -1.421080
 H         1.885182         2.225946         0.067798
 H         4.525562         0.063195         1.641555
 H         1.849549        -0.979120         2.066681
