19
Iteration:  3322
 C         3.588598        -2.536386         0.041802
 C         3.126586        -1.152917         0.106194
 O         2.396580        -0.760199        -0.986963
 C         1.588162         0.147209        -0.109436
 C         0.208422         0.141265        -0.575084
 C         2.351482         1.579286         0.046209
 O         3.566847         1.348155         0.749958
 C         3.549613         0.016980         1.126615
 C         2.171610        -0.616561         1.172109
 H         2.716821        -3.173462        -0.258628
 H         4.299918        -2.670520        -0.742105
 H         4.027055        -2.876148         0.943260
 H         0.036673         0.637440        -1.528356
 H        -0.036478        -0.989969        -0.723731
 H        -0.565104         0.508447         0.109326
 H         2.388630         1.978877        -0.931700
 H         1.932608         2.395366         0.655375
 H         4.291206        -0.420702         1.839135
 H         1.534324        -1.143089         1.852038
