19
Iteration:   512
 C         3.553339        -2.587361         0.204203
 C         3.202689        -1.133044         0.088833
 O         2.265387        -0.721980        -0.916990
 C         1.565691         0.114443         0.117222
 C        -0.026713        -0.066452         0.230312
 C         2.148194         1.545928        -0.069632
 O         3.528348         1.312557        -0.027946
 C         3.839984         0.143038         0.697018
 C         2.520707        -0.453663         1.192456
 H         4.261688        -2.667214         1.151168
 H         2.678880        -3.263523         0.223481
 H         4.195561        -2.875159        -0.730594
 H        -0.607048         0.245452        -0.654521
 H        -0.316594        -1.143922         0.323245
 H        -0.420411         0.418919         1.159279
 H         1.838095         2.014206        -1.084156
 H         1.921629         2.289446         0.793064
 H         4.744194         0.296085         1.359338
 H         2.408605        -0.919144         2.142249
