19
Iteration:    14charge 0 multiplicity 1
 C         3.929419        -2.507835        -0.000363
 C         3.048560        -1.227174         0.167949
 O         2.051961        -0.836273        -0.804166
 C         1.515207         0.264706         0.161789
 C         0.072908         0.070638         0.157508
 C         2.234901         1.490499        -0.266548
 O         3.601298         1.218889         0.125018
 C         3.685418        -0.000933         0.743763
 C         2.344741        -0.277043         1.287587
 H         4.722634        -2.351678         0.826341
 H         3.474098        -3.547034         0.066793
 H         4.461180        -2.459463        -0.901263
 H        -0.557681         0.814779         0.599021
 H        -0.255819        -0.077452        -0.894708
 H        -0.012789        -0.946564         0.581482
 H         2.230093         1.637943        -1.343113
 H         1.878934         2.395454         0.289148
 H         4.640557        -0.125885         1.357332
 H         2.028354        -0.622563         2.369774
