19
Iteration:  1369charge 0 multiplicity 1
 C         3.779933        -2.495130        -0.028223
 C         3.188469        -1.155350         0.226160
 O         2.144770        -0.946001        -0.743176
 C         1.538166         0.102430         0.226785
 C         0.044586         0.148776         0.061867
 C         2.139967         1.410223        -0.287090
 O         3.492745         1.319608         0.037635
 C         3.809298         0.151044         0.729298
 C         2.422398        -0.400610         1.406622
 H         4.853384        -2.634106         0.410946
 H         3.221044        -3.286163         0.407807
 H         3.812260        -2.810617        -1.098659
 H        -0.338052        -0.087569        -0.918576
 H        -0.439087        -0.438703         0.793217
 H        -0.265211         1.173550         0.260244
 H         1.936566         1.490356        -1.334944
 H         1.703353         2.290645         0.152458
 H         4.811695         0.174748         1.269890
 H         2.471275        -0.398234         2.429575
