19
Iteration:  3773charge 0 multiplicity 1
 C         3.706173        -2.539595         0.087505
 C         3.136439        -1.185356         0.141157
 O         2.381987        -0.732274        -1.002926
 C         1.560656         0.176393        -0.014268
 C         0.123201         0.260545        -0.520694
 C         2.322569         1.551745        -0.000078
 O         3.624172         1.241690         0.573229
 C         3.531526        -0.066244         1.085968
 C         2.122928        -0.561592         1.211862
 H         2.944023        -3.144440        -0.342284
 H         4.809920        -2.627440        -0.329499
 H         3.825714        -2.913227         1.134327
 H        -0.598085         0.495213         0.239477
 H         0.143927         0.977528        -1.400182
 H        -0.197372        -0.735222        -0.896154
 H         2.342394         1.673911        -1.081954
 H         1.628332         2.222564         0.602486
 H         4.249033        -0.279284         1.934836
 H         1.764430        -0.856141         2.231084
