19
Iteration:  1048
 C         3.921803        -2.419640         0.199815
 C         3.062415        -1.222635         0.060347
 O         2.049770        -0.871225        -0.838727
 C         1.471322         0.181167         0.138727
 C        -0.080503         0.085124         0.336119
 C         2.206257         1.518613        -0.317774
 O         3.657501         1.291214         0.064458
 C         3.731427         0.035234         0.661079
 C         2.480225        -0.469886         1.222652
 H         4.083637        -2.423359         1.260578
 H         3.520936        -3.427058        -0.140164
 H         4.866576        -2.383161        -0.380117
 H        -0.686123         0.737621        -0.323069
 H        -0.334106        -0.930363         0.037775
 H        -0.343807         0.235169         1.391584
 H         2.191250         1.698435        -1.440216
 H         2.012876         2.534882         0.175737
 H         4.793156         0.033286         1.121785
 H         2.103095        -0.701402         2.169582
