19
Iteration:  3156charge 0 multiplicity 1
 C         3.643408        -2.693660         0.092176
 C         3.164332        -1.196584         0.200044
 O         2.664034        -0.460101        -1.050177
 C         1.646245         0.181555        -0.249955
 C         0.089575         0.121673        -0.348455
 C         2.266259         1.539369         0.043202
 O         3.541681         1.256199         0.575611
 C         3.464265        -0.021820         1.213398
 C         2.022266        -0.671310         1.019532
 H         2.913859        -3.366705        -0.394210
 H         4.504781        -2.791592        -0.446864
 H         3.919617        -2.880482         1.107633
 H        -0.209062         0.633627        -1.253521
 H        -0.155621        -0.899116        -0.340089
 H        -0.278132         0.682041         0.546504
 H         2.393442         2.207252        -0.838976
 H         1.883458         2.322782         0.711013
 H         3.959691        -0.209498         2.122385
 H         1.280944        -0.946967         1.846805
