19
Iteration:  3554charge 0 multiplicity 1
 C         3.582927        -2.612213         0.050642
 C         3.138057        -1.247975         0.182755
 O         2.561063        -0.656145        -0.994214
 C         1.679146         0.163256        -0.008337
 C         0.209361         0.197121        -0.476390
 C         2.157499         1.622132         0.108648
 O         3.479275         1.272094         0.596117
 C         3.579756        -0.083159         1.028488
 C         2.138660        -0.578680         1.102208
 H         2.872729        -2.949067        -0.614598
 H         4.650879        -2.668650        -0.389301
 H         3.492602        -3.256297         0.983140
 H         0.322701         0.094868        -1.621426
 H        -0.520017        -0.463398        -0.079479
 H        -0.119371         1.245047        -0.222294
 H         2.291505         2.040374        -0.882307
 H         1.501852         2.354070         0.580922
 H         4.330442        -0.196060         1.848371
 H         1.761953        -0.988198         2.028457
