19
Iteration:  4370
 C         3.855310        -2.513828         0.098981
 C         3.146062        -1.231051         0.277963
 O         2.412671        -0.749776        -0.996179
 C         1.535577         0.173516        -0.157254
 C         0.039271         0.286155        -0.444642
 C         2.318585         1.513855        -0.102773
 O         3.657739         1.174370         0.580220
 C         3.501575        -0.118092         1.186871
 C         2.005869        -0.467647         1.120002
 H         3.293836        -3.188076        -0.590127
 H         4.782976        -2.345930        -0.378161
 H         4.047024        -2.918050         1.053041
 H        -0.505570         0.253146         0.441793
 H        -0.229670         1.329256        -0.786342
 H        -0.318829        -0.366872        -1.231465
 H         2.568014         2.105970        -0.968509
 H         1.821397         2.169614         0.565694
 H         4.271538        -0.292885         1.903618
 H         1.368115        -0.669857         2.011157
