19
Iteration:  2118
 C         4.019847        -2.379419        -0.152052
 C         3.075867        -1.214213         0.095427
 O         2.421798        -0.549936        -0.994246
 C         1.516132         0.202112        -0.008796
 C         0.071879         0.295391        -0.358525
 C         2.288268         1.508236         0.136745
 O         3.589163         1.151439         0.556569
 C         3.499829        -0.177857         1.149487
 C         1.986842        -0.790670         1.167076
 H         4.857494        -2.445117         0.511601
 H         3.644423        -3.279379        -0.480407
 H         4.339426        -1.992561        -1.087727
 H        -0.563199         0.535388         0.500373
 H        -0.242457         1.022088        -1.126294
 H        -0.228737        -0.732652        -0.694799
 H         2.207945         2.090670        -0.811877
 H         1.853347         2.066991         0.986045
 H         4.123333        -0.284708         2.021981
 H         1.378674        -1.337320         1.948159
