19
Iteration:  3722
 C         3.524024        -2.564271         0.000654
 C         3.099470        -1.085808         0.193559
 O         2.560253        -0.596232        -1.035263
 C         1.603928         0.233779        -0.073647
 C         0.142213         0.002175        -0.390203
 C         2.369004         1.519167         0.028478
 O         3.629267         1.175149         0.537264
 C         3.523536        -0.004592         1.218502
 C         2.104520        -0.484596         1.150885
 H         2.703595        -3.110059        -0.530324
 H         4.519231        -2.510869        -0.419008
 H         3.605458        -3.129017         0.893615
 H        -0.538673         0.869707        -0.514156
 H         0.103338        -0.501673        -1.470945
 H        -0.427131        -0.776348         0.201432
 H         2.356937         2.016703        -1.037301
 H         1.691091         2.179899         0.612766
 H         4.339645        -0.300074         1.938256
 H         1.278336        -0.789182         1.872155
