19
Iteration:   973
 C         3.782843        -2.515974        -0.046435
 C         3.084645        -1.162555         0.215565
 O         2.170144        -0.773566        -0.764993
 C         1.496292         0.214722         0.175238
 C         0.047432        -0.074351         0.143978
 C         2.166213         1.492638        -0.243410
 O         3.620276         1.274507        -0.003016
 C         3.704324         0.028801         0.772203
 C         2.418974        -0.333049         1.356327
 H         4.744442        -2.370914         0.319917
 H         3.393044        -3.432985         0.517909
 H         3.776202        -2.860148        -1.067835
 H        -0.342819         0.198023        -0.875640
 H        -0.168626        -1.091443         0.515503
 H        -0.443266         0.694435         0.773807
 H         2.147613         1.745399        -1.322041
 H         1.914926         2.362902         0.268192
 H         4.706371        -0.153832         1.374171
 H         2.258707        -0.314251         2.406191
