19
Iteration:  2672charge 0 multiplicity 1
 C         3.947431        -2.427759        -0.152646
 C         3.164345        -1.194372         0.107970
 O         2.485985        -0.564265        -0.985701
 C         1.512428         0.203884        -0.055071
 C         0.099841         0.268504        -0.495790
 C         2.271164         1.530139         0.139129
 O         3.565960         1.102709         0.625055
 C         3.378457        -0.143980         1.181222
 C         2.014285        -0.708402         1.221834
 H         3.477264        -3.007113        -0.905233
 H         4.914411        -2.066265        -0.493553
 H         4.058145        -3.046511         0.732201
 H        -0.160544         1.168926        -1.099761
 H        -0.149961        -0.711415        -1.008033
 H        -0.465035         0.284483         0.400541
 H         2.540805         1.972667        -0.884507
 H         1.759916         2.277409         0.816999
 H         4.154754        -0.292924         1.868241
 H         1.432570        -0.941021         2.103044
