19
Iteration:   412charge 0 multiplicity 1
 C         3.923888        -2.462119        -0.088624
 C         3.115537        -1.236647         0.208624
 O         2.072629        -0.914353        -0.722116
 C         1.534439         0.099042         0.134727
 C         0.054591         0.238892         0.122129
 C         2.168371         1.450372        -0.260574
 O         3.520622         1.355464         0.140008
 C         3.713321         0.054523         0.715957
 C         2.433758        -0.517009         1.376338
 H         4.774509        -2.429357         0.623421
 H         3.390853        -3.374888        -0.331104
 H         4.376326        -2.204387        -1.130480
 H        -0.228725         0.224257        -0.958386
 H        -0.551026        -0.492786         0.685814
 H        -0.338250         1.200109         0.515092
 H         2.289019         1.724857        -1.340599
 H         1.621654         2.279448         0.332438
 H         4.664878        -0.082892         1.083733
 H         2.219306        -0.841280         2.444200
