19
Iteration:  3219
 C         3.762712        -2.538908        -0.011388
 C         3.155274        -1.216185         0.200097
 O         2.322951        -0.666985        -0.907593
 C         1.465233         0.273113         0.032824
 C         0.190701         0.144958        -0.691023
 C         2.315662         1.614548         0.102816
 O         3.572405         1.232677         0.657250
 C         3.579962        -0.115711         1.042668
 C         2.114138        -0.593899         1.207498
 H         3.127911        -3.255965        -0.566361
 H         4.761120        -2.467029        -0.533512
 H         3.999290        -3.017466         1.016323
 H         0.502191         0.285473        -1.815487
 H        -0.240209        -0.838960        -0.738279
 H        -0.724890         0.822118        -0.405816
 H         2.639283         1.731727        -1.002807
 H         1.869647         2.550333         0.565304
 H         4.224728        -0.179091         1.876003
 H         1.556507        -0.900893         2.136280
