19
Iteration:  3692
 C         3.598948        -2.649233         0.109066
 C         3.109856        -1.190314         0.115271
 O         2.477066        -0.589970        -0.951798
 C         1.597832         0.230712        -0.017263
 C         0.156668         0.119686        -0.536413
 C         2.279917         1.625781         0.068962
 O         3.600796         1.285445         0.613072
 C         3.574133        -0.092853         1.006865
 C         2.136115        -0.613723         1.147537
 H         2.764507        -3.469440        -0.068354
 H         4.351789        -2.869895        -0.612106
 H         3.978853        -2.868305         1.156259
 H        -0.349326         1.018184        -0.966110
 H         0.059428        -0.572621        -1.372657
 H        -0.511811        -0.315497         0.189723
 H         2.345073         2.068813        -0.933666
 H         1.654108         2.331717         0.628565
 H         4.439984        -0.239244         1.684060
 H         1.637624        -0.770801         2.103359
