19
Iteration:  4328charge 0 multiplicity 1
 C         3.813833        -2.577312         0.287548
 C         3.099010        -1.159742         0.087330
 O         2.364656        -0.644478        -0.998465
 C         1.613499         0.201889        -0.076734
 C         0.127599         0.313001        -0.459740
 C         2.294117         1.483134        -0.034129
 O         3.515453         1.197421         0.569751
 C         3.563729        -0.125702         1.039288
 C         2.162759        -0.567390         1.126694
 H         3.072284        -3.267224        -0.177380
 H         4.823668        -2.732858        -0.165140
 H         3.900938        -2.880150         1.301813
 H        -0.610911         0.056700         0.236923
 H        -0.194288         1.413718        -0.696559
 H         0.145887        -0.295080        -1.367552
 H         2.328531         1.959107        -1.005861
 H         1.650708         2.145988         0.589696
 H         4.286107        -0.455161         1.745418
 H         1.471938        -1.011960         1.867735
