19
Iteration:  2271charge 0 multiplicity 1
 C         3.861854        -2.477273        -0.378946
 C         3.113160        -1.146652         0.108059
 O         2.408088        -0.511393        -0.967706
 C         1.534691         0.191799         0.047704
 C         0.142239         0.251993        -0.646513
 C         2.209992         1.492297         0.263728
 O         3.525161         1.192387         0.829555
 C         3.549489        -0.102647         1.143192
 C         2.139663        -0.814145         1.190182
 H         3.692289        -2.641493        -1.483203
 H         4.875545        -2.200607        -0.183162
 H         3.692458        -3.362781         0.208455
 H         0.231411        -0.006384        -1.731391
 H        -0.465616        -0.524453        -0.101565
 H        -0.467253         1.153989        -0.517736
 H         2.431559         2.090112        -0.633071
 H         1.556985         2.067863         0.981493
 H         4.281580        -0.315054         1.965171
 H         1.673546        -1.305118         2.105721
