19
Iteration:  2579charge 0 multiplicity 1
 C         3.667715        -2.517973        -0.217424
 C         3.114540        -1.149852         0.089854
 O         2.649342        -0.379801        -0.968451
 C         1.586070         0.229391        -0.054055
 C         0.171384         0.006866        -0.458348
 C         2.184654         1.584787         0.180050
 O         3.538736         1.186579         0.704729
 C         3.481353        -0.158951         1.205339
 C         2.078697        -0.657005         1.059381
 H         2.940603        -3.433883        -0.208796
 H         4.206428        -2.385653        -1.212646
 H         4.477818        -2.874773         0.481953
 H         0.144935        -1.094789        -0.493813
 H        -0.481925         0.286913         0.373264
 H        -0.182655         0.417948        -1.424588
 H         2.406236         2.185479        -0.730221
 H         1.682398         2.163657         1.011076
 H         4.073556        -0.517528         2.033285
 H         1.367818        -1.095466         1.852256
