19
Iteration:  3989
 C         3.727986        -2.481032         0.022578
 C         3.038760        -1.196332         0.273240
 O         2.382277        -0.755388        -0.913812
 C         1.589806         0.127740        -0.059148
 C         0.186645         0.269512        -0.541112
 C         2.344618         1.438282        -0.117244
 O         3.675886         1.248920         0.555564
 C         3.486286        -0.019448         1.157822
 C         2.029822        -0.548518         1.227797
 H         2.952009        -3.179487        -0.346921
 H         4.410257        -2.386488        -0.818129
 H         4.257825        -2.860166         0.929990
 H        -0.221609        -0.737338        -0.534263
 H        -0.432325         0.954825         0.096507
 H         0.136241         0.620643        -1.609432
 H         2.594472         1.754595        -1.121658
 H         1.843929         2.211978         0.527342
 H         4.156196        -0.047590         1.978256
 H         1.576295        -0.720866         2.184238
