19
Iteration:    78charge 0 multiplicity 1
 C         3.952099        -2.539019        -0.165721
 C         3.153262        -1.247330         0.227669
 O         2.182652        -0.910404        -0.736924
 C         1.546187         0.057424         0.165171
 C         0.017535         0.292730         0.087202
 C         2.175559         1.422259        -0.289647
 O         3.513786         1.355204         0.151578
 C         3.593804         0.106600         0.763850
 C         2.344485        -0.499201         1.378249
 H         4.735856        -2.677540         0.637360
 H         3.453605        -3.519081        -0.233415
 H         4.503565        -2.281484        -1.026737
 H        -0.097463         1.339385        -0.020049
 H        -0.370340        -0.324692        -0.705946
 H        -0.404373         0.178279         1.078042
 H         2.124153         1.534144        -1.368902
 H         1.802808         2.369771         0.107807
 H         4.504853         0.184392         1.477535
 H         2.246142        -0.458388         2.527980
