19
Iteration:  2927charge 0 multiplicity 1
 C         3.814625        -2.511157         0.001062
 C         3.030980        -1.225420         0.137618
 O         2.357255        -0.622487        -1.036597
 C         1.618348         0.164377        -0.064684
 C         0.090853         0.099432        -0.524853
 C         2.360384         1.597735         0.046693
 O         3.681660         1.175469         0.653143
 C         3.501070        -0.066680         1.133739
 C         2.022703        -0.494182         1.211291
 H         3.075148        -3.386768         0.004588
 H         4.382741        -2.487167        -0.897530
 H         4.464812        -2.706660         0.907470
 H         0.012844        -0.439447        -1.490499
 H        -0.467055        -0.376922         0.221187
 H        -0.405996         1.086058        -0.763825
 H         2.527570         2.126368        -0.854710
 H         1.810407         2.254274         0.724358
 H         4.155608        -0.311238         1.982086
 H         1.605206        -0.781099         2.127795
