19
Iteration:  4524charge 0 multiplicity 1
 C         3.870001        -2.484239        -0.066094
 C         3.026866        -1.234582         0.231706
 O         2.365057        -0.629631        -0.935976
 C         1.579844         0.189487        -0.115119
 C         0.142727         0.175528        -0.508669
 C         2.398538         1.529344        -0.013943
 O         3.615494         1.192425         0.671506
 C         3.453299        -0.189883         1.143839
 C         1.993444        -0.463513         1.195106
 H         3.387645        -3.187519        -0.891020
 H         4.741082        -1.962499        -0.501280
 H         4.162477        -3.134569         0.727661
 H         0.105176         0.340052        -1.561160
 H        -0.307675        -0.801939        -0.166089
 H        -0.375860         1.062794        -0.209454
 H         2.725334         1.870908        -1.032267
 H         1.808514         2.317712         0.576107
 H         4.166996        -0.446507         1.967573
 H         1.367132        -0.736721         2.044392
