19
Iteration:  3986
 C         3.721130        -2.461612         0.032370
 C         3.054561        -1.208885         0.257448
 O         2.362374        -0.756084        -0.927130
 C         1.591984         0.153486        -0.060243
 C         0.191000         0.263019        -0.529910
 C         2.345109         1.435867        -0.115577
 O         3.664111         1.238078         0.555244
 C         3.467983        -0.028771         1.165917
 C         2.053622        -0.557026         1.206188
 H         2.880427        -3.223810        -0.250551
 H         4.505690        -2.285647        -0.694973
 H         4.238441        -2.922775         0.956679
 H        -0.187617        -0.822599        -0.634507
 H        -0.342089         0.921336         0.121998
 H         0.106434         0.657133        -1.541850
 H         2.637111         1.824648        -1.107620
 H         1.908695         2.201848         0.518255
 H         4.210085         0.009422         1.995728
 H         1.563160        -0.636321         2.231490
