19
Iteration:   609charge 0 multiplicity 1
 C         3.964312        -2.425530        -0.068622
 C         3.077434        -1.218739         0.235674
 O         2.109837        -0.856370        -0.869933
 C         1.515466         0.114228         0.105691
 C         0.053319         0.174445         0.318375
 C         2.176751         1.463589        -0.274376
 O         3.609474         1.264736        -0.003131
 C         3.655634         0.048429         0.841367
 C         2.342305        -0.447582         1.335253
 H         4.820392        -2.564575         0.665418
 H         3.433408        -3.324121        -0.098255
 H         4.465605        -2.003644        -0.988265
 H        -0.716557         0.331161        -0.444128
 H        -0.271814        -0.842110         0.608480
 H        -0.003425         0.926424         1.134152
 H         2.055087         1.494125        -1.391102
 H         1.787261         2.309896         0.246507
 H         4.738368        -0.148193         1.196133
 H         1.800132        -0.630683         2.220118
