19
Iteration:   781charge 0 multiplicity 1
 C         3.759918        -2.557227         0.046126
 C         3.180039        -1.157576         0.087682
 O         2.034155        -0.867345        -0.789220
 C         1.541019         0.087922         0.133791
 C         0.116370         0.092109         0.118500
 C         2.061735         1.530459        -0.179580
 O         3.529655         1.367810         0.133539
 C         3.803773         0.112870         0.690474
 C         2.560282        -0.477489         1.267750
 H         4.702620        -2.645158         0.645087
 H         3.039889        -3.187998         0.590849
 H         4.015555        -2.925929        -0.984629
 H        -0.236079         0.289587        -0.894190
 H        -0.254173        -0.741338         0.757568
 H        -0.284421         0.975763         0.579180
 H         1.840966         1.927016        -1.156588
 H         1.748391         2.199787         0.573455
 H         4.798014        -0.224101         1.207812
 H         2.370981        -0.654537         2.295766
