19
Iteration:  2122charge 0 multiplicity 1
 C         4.044351        -2.373402        -0.162270
 C         3.070729        -1.209728         0.079767
 O         2.402197        -0.551407        -0.979109
 C         1.528428         0.179629        -0.014633
 C         0.075147         0.296651        -0.365954
 C         2.289911         1.474619         0.137299
 O         3.584367         1.153352         0.570336
 C         3.445450        -0.192380         1.166606
 C         2.014260        -0.749005         1.173807
 H         4.974437        -2.399980         0.486042
 H         3.593691        -3.407777        -0.387454
 H         4.249088        -1.968231        -1.222680
 H        -0.504598         0.641095         0.523133
 H        -0.144567         0.968848        -1.219831
 H        -0.264424        -0.701132        -0.550723
 H         2.371035         2.169235        -0.773455
 H         1.768797         2.131137         0.940491
 H         4.275189        -0.243277         1.887684
 H         1.324321        -1.348602         1.800718
