19
Iteration:  3347
 C         3.597225        -2.689211        -0.085107
 C         3.141732        -1.237473         0.261391
 O         2.529014        -0.574632        -0.921456
 C         1.603164         0.189284        -0.106409
 C         0.181356         0.122133        -0.591735
 C         2.213884         1.539662         0.041867
 O         3.568776         1.305379         0.589441
 C         3.609777        -0.027938         1.157448
 C         2.105360        -0.529626         1.229199
 H         2.838693        -3.162916        -0.636654
 H         4.580061        -2.576429        -0.679789
 H         3.806083        -3.352723         0.811003
 H         0.067151         0.295154        -1.677947
 H        -0.175673        -0.853529        -0.343650
 H        -0.495228         0.817812        -0.144756
 H         2.159356         2.084855        -0.920216
 H         1.734614         2.246086         0.815364
 H         3.989709        -0.205345         2.131765
 H         1.560681        -0.786551         2.196933
