19
Iteration:  2375
 C         3.732767        -2.533415        -0.214427
 C         3.143796        -1.251051         0.125844
 O         2.566301        -0.464791        -1.028129
 C         1.590319         0.180896        -0.038792
 C         0.129988         0.162410        -0.545766
 C         2.155932         1.554246         0.312861
 O         3.538444         1.243077         0.752985
 C         3.542246        -0.089806         1.129196
 C         2.114170        -0.714697         1.077922
 H         2.934064        -3.263997        -0.120991
 H         3.922957        -2.601001        -1.340642
 H         4.633704        -2.824519         0.363380
 H        -0.171534         1.141294        -0.957700
 H         0.153995        -0.596250        -1.348846
 H        -0.556810        -0.073541         0.359116
 H         2.144886         2.264970        -0.593331
 H         1.558147         2.000792         1.175823
 H         4.176593        -0.257875         1.928612
 H         1.674785        -1.343973         1.896681
