19
Iteration:  3426
 C         3.822308        -2.582789         0.066430
 C         2.966582        -1.260245         0.125137
 O         2.402113        -0.733125        -1.009378
 C         1.667511         0.220760        -0.100866
 C         0.222314         0.304318        -0.456851
 C         2.300714         1.513403         0.002407
 O         3.489789         1.345139         0.740139
 C         3.490865        -0.031702         1.091266
 C         2.123851        -0.664077         1.099277
 H         3.203368        -3.501209        -0.222139
 H         4.601410        -2.403936        -0.734872
 H         4.244688        -2.733552         1.092558
 H         0.180923         0.825347        -1.426878
 H        -0.210541        -0.657073        -0.599865
 H        -0.301255         0.973810         0.251243
 H         2.553336         1.701382        -1.105989
 H         1.614912         2.232663         0.541771
 H         4.159330        -0.520183         1.806276
 H         1.599554        -1.109043         1.905014
