19
Iteration:  3565charge 0 multiplicity 1
 C         3.601540        -2.665434        -0.024054
 C         3.101960        -1.206355         0.209013
 O         2.511076        -0.640069        -0.981830
 C         1.594695         0.185304        -0.103265
 C         0.179487         0.210747        -0.492883
 C         2.253817         1.539387         0.016851
 O         3.542552         1.364419         0.652125
 C         3.553777        -0.038956         1.086617
 C         2.164095        -0.633607         1.210785
 H         3.077354        -3.225558        -0.719579
 H         4.693747        -2.640771        -0.358646
 H         3.662387        -3.307434         0.911463
 H         0.041333        -0.056959        -1.597526
 H        -0.369944        -0.530761         0.047332
 H        -0.327780         1.200112        -0.411924
 H         2.366230         1.999645        -0.957622
 H         1.692218         2.129905         0.748599
 H         4.345891        -0.286766         1.808980
 H         1.622299        -0.962503         2.087085
