19
Iteration:  3413
 C         3.807411        -2.538595         0.119998
 C         3.037466        -1.317546         0.119877
 O         2.389041        -0.718613        -1.101545
 C         1.576359         0.198827        -0.084984
 C         0.151360         0.242454        -0.530761
 C         2.315201         1.639515         0.056275
 O         3.577046         1.298840         0.761299
 C         3.509549        -0.159401         1.030353
 C         2.104176        -0.596889         1.158685
 H         3.292574        -3.355803        -0.296843
 H         4.759899        -2.409384        -0.502265
 H         4.210489        -2.827398         1.135522
 H        -0.071625         0.474998        -1.616326
 H        -0.282490        -0.690724        -0.297980
 H        -0.383972         0.904106         0.165806
 H         2.538865         2.209875        -0.882498
 H         1.713349         2.396769         0.618285
 H         4.329425        -0.178474         1.753355
 H         1.465343        -0.838163         2.049049
