19
Iteration:  2103charge 0 multiplicity 1
 C         3.940218        -2.367660        -0.188990
 C         3.101619        -1.237369         0.176680
 O         2.458227        -0.546862        -0.973033
 C         1.527396         0.167497         0.014286
 C         0.025733         0.223063        -0.372547
 C         2.213644         1.536765         0.225152
 O         3.617216         1.145077         0.546136
 C         3.486808        -0.140324         1.050639
 C         2.067421        -0.731950         1.061563
 H         4.206145        -2.766042         0.805326
 H         3.265657        -3.251506        -0.542672
 H         4.881195        -2.091187        -0.747740
 H        -0.547670         0.083118         0.555830
 H        -0.125871         1.203032        -0.831477
 H        -0.228600        -0.582407        -1.082854
 H         2.404466         2.062165        -0.686757
 H         1.772138         2.293964         0.855390
 H         4.122417        -0.365688         1.984460
 H         1.738674        -0.966614         2.032148
