19
Iteration:  1974charge 0 multiplicity 1
 C         3.956257        -2.433264        -0.055887
 C         3.062020        -1.182507         0.069882
 O         2.296410        -0.662364        -0.969837
 C         1.581281         0.146522        -0.025351
 C         0.037123         0.235576        -0.264773
 C         2.236449         1.510065         0.135261
 O         3.631939         1.255317         0.436260
 C         3.521653        -0.083486         0.990782
 C         2.163114        -0.706254         1.245201
 H         4.136019        -2.519636        -1.109454
 H         4.872645        -2.205824         0.515946
 H         3.488810        -3.378004         0.183081
 H        -0.226620        -0.422675        -1.136419
 H        -0.613222        -0.104165         0.556322
 H        -0.226377         1.274771        -0.621624
 H         2.226871         2.129577        -0.775261
 H         1.739440         1.987715         1.059129
 H         4.364285        -0.340328         1.708016
 H         1.737280        -1.155546         2.126053
