19
Iteration:  2804
 C         3.576044        -2.517178        -0.064935
 C         3.097111        -1.155140         0.198009
 O         2.601630        -0.457022        -0.915530
 C         1.554534         0.255457        -0.116900
 C         0.093782        -0.090954        -0.497281
 C         2.288625         1.662384         0.136188
 O         3.643074         1.184035         0.574470
 C         3.522703        -0.086454         1.106823
 C         2.091691        -0.612359         1.097548
 H         2.817061        -3.224472        -0.508474
 H         4.531745        -2.669564        -0.634424
 H         3.855922        -2.901288         0.933375
 H        -0.203928        -0.921752         0.144132
 H        -0.599932         0.753602        -0.228028
 H        -0.013512        -0.541386        -1.466548
 H         2.356913         2.409980        -0.691460
 H         1.948220         2.276521         0.964352
 H         4.271599        -0.379653         1.896403
 H         1.486321        -1.295942         1.848759
