19
Iteration:  3575
 C         3.687310        -2.644245        -0.042175
 C         3.091746        -1.262158         0.128629
 O         2.409708        -0.619650        -0.952970
 C         1.614227         0.187394        -0.125200
 C         0.077560         0.172500        -0.539138
 C         2.347303         1.491342        -0.005134
 O         3.620117         1.330361         0.673666
 C         3.528144         0.006152         1.185206
 C         2.163361        -0.591445         1.227645
 H         3.043144        -3.052976        -0.742368
 H         4.693890        -2.572931        -0.538123
 H         3.570644        -3.042249         1.011469
 H        -0.006212        -0.230499        -1.609715
 H        -0.368057        -0.516239         0.109178
 H        -0.371920         1.148072        -0.295602
 H         2.483346         2.027389        -0.905206
 H         1.664604         2.193305         0.600629
 H         4.292146        -0.079223         1.996323
 H         1.461674        -0.963308         2.004171
