19
Iteration:  3707charge 0 multiplicity 1
 C         3.528745        -2.573749         0.076869
 C         3.100342        -1.203346         0.185104
 O         2.450202        -0.524145        -0.982070
 C         1.601298         0.212627        -0.122592
 C         0.114966        -0.011135        -0.501976
 C         2.324584         1.603324         0.013853
 O         3.676470         1.282425         0.560233
 C         3.543736        -0.050733         1.137110
 C         2.135216        -0.600222         1.166972
 H         2.749322        -3.092265        -0.408904
 H         4.442488        -2.753778        -0.604907
 H         3.775069        -2.947018         1.101946
 H        -0.353199         0.962372        -0.568676
 H         0.151523        -0.605062        -1.400603
 H        -0.314211        -0.507885         0.366446
 H         2.597555         2.034049        -0.919110
 H         1.973910         2.273627         0.806820
 H         4.111225        -0.191570         2.080865
 H         1.707965        -1.221473         1.943810
