19
Iteration:  4241
 C         3.573380        -2.606322         0.097336
 C         3.133459        -1.154061         0.183150
 O         2.433341        -0.626187        -0.957876
 C         1.612775         0.250462        -0.036595
 C         0.173624         0.047662        -0.542392
 C         2.337809         1.581359         0.005174
 O         3.630392         1.263801         0.569008
 C         3.576841         0.014598         1.133029
 C         2.062796        -0.598082         1.130263
 H         2.645337        -3.169975         0.249394
 H         3.909884        -2.717209        -0.981366
 H         4.311786        -3.053201         0.711084
 H        -0.479706         0.171024         0.276570
 H        -0.143930         0.695039        -1.437560
 H        -0.073316        -0.989070        -0.742526
 H         2.493511         1.898869        -1.032241
 H         1.798069         2.403150         0.633645
 H         4.267197        -0.174328         1.970784
 H         1.660518        -1.090822         2.052275
