19
Iteration:  2503charge 0 multiplicity 1
 C         4.053790        -2.407288        -0.178521
 C         3.155959        -1.251846         0.074473
 O         2.447167        -0.600436        -1.029845
 C         1.529765         0.156875        -0.105470
 C         0.059380         0.457987        -0.394397
 C         2.168653         1.431867         0.143762
 O         3.480416         1.229360         0.750413
 C         3.473236        -0.167149         1.201982
 C         2.121872        -0.822965         1.093935
 H         3.514121        -3.245305        -0.712637
 H         5.024107        -2.229766        -0.682769
 H         4.162483        -2.919738         0.795583
 H        -0.600235         0.161877         0.394828
 H        -0.090632         1.506473        -0.523820
 H        -0.084255         0.021434        -1.367073
 H         2.465642         1.796334        -0.875706
 H         1.590524         2.293947         0.631945
 H         4.069930        -0.378581         2.031748
 H         1.402878        -1.249200         1.870027
