19
Iteration:  2868
 C         3.849010        -2.598361        -0.022509
 C         3.166302        -1.241484         0.156987
 O         2.469404        -0.725817        -1.010327
 C         1.560123         0.092405        -0.114482
 C         0.043662         0.421670        -0.459824
 C         2.245673         1.462064        -0.003802
 O         3.551662         1.269594         0.691062
 C         3.505368        -0.022446         1.177425
 C         2.110333        -0.595197         1.118589
 H         3.109417        -3.257247        -0.579249
 H         4.853187        -2.557274        -0.620962
 H         4.112685        -2.780402         1.038829
 H        -0.355221        -0.307908        -1.139062
 H        -0.618489         0.271730         0.451143
 H        -0.104987         1.423908        -0.713342
 H         2.470949         1.815488        -1.073811
 H         1.650332         2.147540         0.606389
 H         4.279401        -0.092719         1.965840
 H         1.552729        -0.997960         2.060572
