19
Iteration:  2410charge 0 multiplicity 1
 C         3.548283        -2.571861        -0.318545
 C         3.193648        -1.159937         0.156233
 O         2.586556        -0.466754        -0.981735
 C         1.640656         0.103883        -0.006319
 C         0.217612         0.086762        -0.603009
 C         2.080167         1.532935         0.318333
 O         3.496517         1.284141         0.713484
 C         3.596931        -0.001416         1.166003
 C         2.217848        -0.668628         1.174939
 H         2.471138        -2.998708        -0.329428
 H         3.953231        -2.598973        -1.388229
 H         4.027114        -3.350818         0.325844
 H        -0.291658         1.050852        -0.662229
 H         0.344024        -0.323319        -1.620878
 H        -0.476088        -0.731559        -0.179427
 H         2.249039         2.285130        -0.479402
 H         1.362552         1.955559         1.116339
 H         4.279595        -0.197378         2.028998
 H         1.871939        -1.422298         1.954965
