19
Iteration:  3037charge 0 multiplicity 1
 C         3.776268        -2.527111         0.181625
 C         3.074089        -1.214568         0.150794
 O         2.466433        -0.596546        -1.029545
 C         1.597801         0.214762        -0.147375
 C         0.056959         0.154686        -0.479443
 C         2.396084         1.629802         0.022058
 O         3.627024         1.174319         0.647160
 C         3.409760        -0.149855         1.119226
 C         2.028559        -0.541550         1.046542
 H         3.276018        -3.475135        -0.317364
 H         4.684909        -2.470952        -0.477216
 H         4.210666        -2.781888         1.185563
 H        -0.399310         0.913557        -1.105438
 H        -0.109123        -0.844525        -0.874820
 H        -0.386997         0.130114         0.529897
 H         2.582424         2.032677        -0.951422
 H         1.924000         2.446196         0.662654
 H         4.149359        -0.438854         1.881736
 H         1.548544        -0.951839         1.975635
