19
Iteration:   366
 C         3.629304        -2.555794         0.178718
 C         3.067979        -1.154956         0.093446
 O         2.260645        -0.662767        -0.948341
 C         1.566990         0.210088         0.079311
 C         0.122645        -0.183149         0.227466
 C         2.191066         1.572270        -0.063860
 O         3.547491         1.317027         0.012731
 C         3.723472         0.080816         0.710382
 C         2.428500        -0.440499         1.226561
 H         4.474591        -2.507436         0.818087
 H         2.776631        -3.226997         0.485085
 H         3.903141        -3.088563        -0.807883
 H        -0.506682        -0.141798        -0.686280
 H         0.160045        -1.191150         0.632339
 H        -0.270327         0.365694         1.091574
 H         1.974422         2.022797        -1.063655
 H         2.042336         2.345418         0.770446
 H         4.730408         0.114323         1.260136
 H         2.072466        -0.901503         2.134613
