19
Iteration:   531charge 0 multiplicity 1
 C         3.462904        -2.635919         0.197110
 C         3.264983        -1.105624         0.069678
 O         2.268110        -0.738036        -0.917711
 C         1.568085         0.073612         0.113515
 C         0.163802        -0.107703         0.164533
 C         2.045591         1.479418         0.084314
 O         3.558178         1.406887        -0.088348
 C         3.792220         0.214155         0.663917
 C         2.555729        -0.420117         1.252636
 H         4.143465        -2.851286         1.017175
 H         2.426978        -2.871936         0.418582
 H         3.510916        -3.274259        -0.738215
 H        -0.122433         0.092988        -0.884384
 H        -0.256766        -1.092356         0.454607
 H        -0.390713         0.617680         0.782545
 H         1.619080         1.961031        -0.804564
 H         1.646707         1.948529         0.956413
 H         4.709322         0.058158         1.109536
 H         2.312402        -0.660555         2.324749
