19
Iteration:  1145
 C         3.710364        -2.528918         0.205693
 C         3.150519        -1.141686         0.129735
 O         2.104518        -0.831202        -0.820643
 C         1.601368         0.124122         0.157927
 C         0.008368        -0.023090         0.113707
 C         2.108415         1.528082        -0.180420
 O         3.612984         1.370980         0.023193
 C         3.769529         0.127609         0.583579
 C         2.522692        -0.425493         1.347150
 H         4.720513        -2.699947         0.566932
 H         3.063698        -3.225128         0.843350
 H         3.663243        -3.016578        -0.812926
 H        -0.253467        -0.477082        -0.843977
 H        -0.406388        -0.737703         0.810807
 H        -0.472581         0.918888         0.447528
 H         1.955694         1.825066        -1.244573
 H         1.702643         2.262422         0.522839
 H         4.777594        -0.012651         0.993518
 H         2.361011        -0.800429         2.285804
