19
Iteration:   323charge 0 multiplicity 1
 C         3.403448        -2.592418         0.081930
 C         3.272031        -1.073969         0.173103
 O         2.191359        -0.791641        -0.808647
 C         1.599468         0.123023         0.131005
 C         0.030805        -0.193160         0.132874
 C         2.176563         1.532609        -0.104357
 O         3.545662         1.413543        -0.018634
 C         3.875451         0.233750         0.734268
 C         2.556850        -0.450596         1.252016
 H         3.882313        -2.944072         0.947439
 H         2.415414        -2.994315        -0.026269
 H         4.013099        -3.095821        -0.742010
 H        -0.624139         0.458088        -0.478817
 H        -0.060124        -1.180534        -0.307927
 H        -0.106394        -0.337980         1.189553
 H         1.992739         1.879266        -1.143027
 H         1.619555         2.116706         0.648212
 H         4.915797         0.405061         1.195228
 H         2.237185        -0.603310         2.242462
