19
Iteration:  4416charge 0 multiplicity 1
 C         3.605938        -2.543439         0.035648
 C         3.048902        -1.183796         0.238371
 O         2.484542        -0.572614        -0.911463
 C         1.557044         0.185816        -0.050658
 C         0.131914         0.042601        -0.600897
 C         2.284670         1.601317        -0.003894
 O         3.655591         1.218414         0.573281
 C         3.599833        -0.079142         1.112560
 C         2.101296        -0.541911         1.259722
 H         2.812924        -3.222008        -0.252028
 H         4.177885        -2.588486        -0.921676
 H         4.214703        -2.884861         0.838460
 H        -0.600692         0.745434        -0.170460
 H         0.070374         0.244882        -1.739805
 H        -0.135313        -1.008223        -0.576911
 H         2.622077         1.878195        -1.015126
 H         1.986084         2.511553         0.440369
 H         4.246310        -0.269241         1.996266
 H         1.463492        -0.918176         2.047549
