19
Iteration:  4577charge 0 multiplicity 1
 C         3.814269        -2.510177        -0.025660
 C         3.003328        -1.220711         0.128359
 O         2.485034        -0.621407        -0.992997
 C         1.546498         0.161697        -0.009119
 C         0.161396         0.301211        -0.537303
 C         2.286888         1.492406         0.037037
 O         3.542603         1.204176         0.655407
 C         3.492289        -0.103038         1.160288
 C         2.126023        -0.649259         1.200335
 H         3.395114        -3.297287        -0.774869
 H         4.692491        -2.415911        -0.622001
 H         3.954445        -2.729084         0.991715
 H        -0.071803        -0.420348        -1.275554
 H        -0.571763         0.504808         0.325698
 H         0.222143         1.180656        -1.122817
 H         2.413121         1.772430        -1.015713
 H         1.710211         2.284124         0.575710
 H         4.213747        -0.177178         2.024570
 H         1.481195        -1.101644         1.970376
