19
Iteration:   663
 C         3.901828        -2.417925        -0.012944
 C         3.093910        -1.225633         0.168811
 O         1.987372        -0.919307        -0.755882
 C         1.525644         0.004708         0.188027
 C         0.052562         0.247008         0.212601
 C         2.156236         1.386137        -0.254656
 O         3.566456         1.427526         0.082412
 C         3.734609         0.073259         0.668111
 C         2.506126        -0.513217         1.257936
 H         4.189251        -2.697520         1.045246
 H         3.447878        -3.264040        -0.412517
 H         4.873185        -2.132319        -0.509784
 H        -0.101776         1.190438        -0.328229
 H        -0.400745        -0.752019        -0.122083
 H        -0.468751         0.527039         1.165559
 H         2.005885         1.509005        -1.380938
 H         1.716695         2.314449         0.304100
 H         4.782097        -0.032046         1.143395
 H         2.478745        -0.858626         2.239513
