19
Iteration:   285
 C         3.889640        -2.522525         0.028022
 C         3.125930        -1.287206         0.169016
 O         2.117437        -0.793441        -0.786491
 C         1.533148         0.216364         0.118375
 C         0.021754         0.115380         0.220320
 C         2.162288         1.468708        -0.237790
 O         3.518092         1.297867         0.038510
 C         3.762641         0.074270         0.736989
 C         2.434194        -0.475170         1.254305
 H         4.339166        -2.647871         1.083305
 H         3.193312        -3.408615        -0.074957
 H         4.631206        -2.378864        -0.709791
 H        -0.587868         0.928566        -0.210417
 H        -0.365971        -0.807527        -0.251014
 H        -0.259062         0.098508         1.305651
 H         1.996556         1.673685        -1.298989
 H         1.838853         2.378692         0.358230
 H         4.751920         0.024926         1.020240
 H         2.179866        -0.419759         2.373678
