19
Iteration:  3833charge 0 multiplicity 1
 C         3.811380        -2.551826         0.085938
 C         3.096807        -1.211438         0.287005
 O         2.452928        -0.673850        -0.939517
 C         1.646376         0.191063        -0.184316
 C         0.051266         0.265929        -0.425482
 C         2.350284         1.517915        -0.078563
 O         3.623653         1.167102         0.523535
 C         3.492522        -0.069463         1.098852
 C         1.982680        -0.524045         1.154889
 H         3.126346        -3.402902         0.428846
 H         4.135897        -2.785545        -0.839733
 H         4.580784        -2.623252         0.866744
 H        -0.512194        -0.398750         0.326034
 H        -0.367978         1.233883        -0.154831
 H        -0.147595         0.065388        -1.467638
 H         2.505508         2.041622        -1.064904
 H         1.821772         2.267025         0.547541
 H         4.162772        -0.385220         1.880287
 H         1.349232        -0.730530         1.985172
