19
Iteration:  3816
 C         3.857290        -2.633898         0.198243
 C         3.134832        -1.272268         0.133487
 O         2.422772        -0.776747        -1.011753
 C         1.530227         0.219280        -0.067611
 C         0.098593         0.347257        -0.420594
 C         2.340575         1.574167        -0.024091
 O         3.608447         1.284505         0.528780
 C         3.403284        -0.135201         1.076809
 C         2.061450        -0.555863         1.109622
 H         3.198842        -3.463553         0.372047
 H         4.531375        -2.593236        -0.809996
 H         4.671991        -2.719780         0.980477
 H        -0.541761        -0.114507         0.323279
 H        -0.161433         1.412782        -0.531872
 H        -0.256830        -0.087790        -1.382018
 H         2.578053         2.064316        -0.968024
 H         1.894518         2.406366         0.638498
 H         3.982069        -0.262087         2.041598
 H         1.538122        -0.701391         2.102094
