19
Iteration:  1337
 C         3.750498        -2.586110         0.118341
 C         3.117980        -1.144374         0.140235
 O         2.097253        -0.929912        -0.832300
 C         1.543750         0.171362         0.197665
 C         0.021710        -0.027605         0.159817
 C         2.207612         1.521217        -0.244328
 O         3.578603         1.381137         0.005503
 C         3.788466         0.182460         0.678827
 C         2.442779        -0.363330         1.330969
 H         4.251024        -2.769799         1.132925
 H         2.960836        -3.291209         0.122869
 H         4.516497        -2.726435        -0.672609
 H        -0.412676         0.375940        -0.722855
 H        -0.093243        -1.076481         0.204792
 H        -0.429402         0.380018         1.066743
 H         2.050920         1.618557        -1.293641
 H         1.841373         2.341088         0.355914
 H         4.742738        -0.050072         1.191229
 H         2.326613        -0.467249         2.361927
