19
Iteration:  2129charge 0 multiplicity 1
 C         4.044560        -2.350789        -0.236042
 C         3.068677        -1.220490         0.126724
 O         2.369923        -0.567432        -0.976465
 C         1.563844         0.149570        -0.031102
 C         0.079278         0.285462        -0.365716
 C         2.269379         1.475338         0.157464
 O         3.571216         1.135968         0.620060
 C         3.394674        -0.182697         1.169256
 C         2.072116        -0.672290         1.147224
 H         4.954013        -2.293225         0.345389
 H         3.627252        -3.290340        -0.076287
 H         4.359625        -2.194349        -1.229759
 H        -0.343794         0.866774         0.466217
 H         0.050751         0.812585        -1.335218
 H        -0.431615        -0.702844        -0.440417
 H         2.557647         2.054871        -0.737340
 H         1.678139         2.130760         0.795128
 H         4.277784        -0.428624         1.683836
 H         1.345262        -1.271804         1.738925
