19
Iteration:  4376
 C         3.807163        -2.500209         0.021550
 C         3.145909        -1.213246         0.283335
 O         2.407863        -0.747037        -0.996853
 C         1.611206         0.173586        -0.159604
 C         0.074355         0.240428        -0.476902
 C         2.325379         1.568043        -0.072082
 O         3.641306         1.105436         0.565483
 C         3.465699        -0.087174         1.192070
 C         2.019837        -0.458560         1.195890
 H         3.190759        -3.249456        -0.471802
 H         4.851143        -2.200382        -0.371356
 H         4.099623        -2.969638         1.043957
 H        -0.585621         0.342688         0.490803
 H        -0.181507         1.247247        -0.778691
 H        -0.271640        -0.562721        -1.169963
 H         2.491437         1.972949        -1.120328
 H         1.686402         2.411056         0.439641
 H         4.171160        -0.246068         2.059899
 H         1.420642        -0.571395         2.082268
