19
Iteration:   897charge 0 multiplicity 1
 C         3.602046        -2.653346         0.118602
 C         3.197838        -1.198347         0.076097
 O         2.210848        -0.792469        -0.818355
 C         1.665303         0.051526         0.200614
 C         0.121283         0.051465         0.170171
 C         2.029414         1.495037        -0.140576
 O         3.479330         1.488908        -0.050682
 C         3.745274         0.161842         0.691229
 C         2.561480        -0.505060         1.281052
 H         3.831008        -2.930041         1.090414
 H         2.642060        -3.271437        -0.063427
 H         4.442768        -2.951123        -0.473532
 H        -0.220981         0.394836        -0.842183
 H        -0.239351        -0.895215         0.596208
 H        -0.141772         0.834039         0.899998
 H         1.736039         1.763059        -1.191060
 H         1.666168         2.256299         0.596247
 H         4.729517         0.273224         1.331287
 H         2.487957        -0.855038         2.287189
