19
Iteration:  3467charge 0 multiplicity 1
 C         3.709358        -2.530309        -0.055067
 C         3.109676        -1.241156         0.247973
 O         2.560569        -0.684921        -0.924188
 C         1.514357         0.179904        -0.131593
 C         0.006615         0.248617        -0.463902
 C         2.409589         1.488043        -0.105016
 O         3.600038         1.274162         0.691543
 C         3.503286        -0.054683         1.205863
 C         2.050291        -0.609484         1.110725
 H         3.050522        -3.312582        -0.023345
 H         4.206514        -2.327149        -1.040184
 H         4.542918        -2.717667         0.685814
 H        -0.247158         1.175635        -1.112424
 H        -0.199203        -0.626020        -1.039924
 H        -0.725597         0.307302         0.367344
 H         2.744132         1.712591        -1.112451
 H         1.836542         2.280764         0.404252
 H         4.211310        -0.087869         2.071238
 H         1.427765        -1.012068         1.938276
