19
Iteration:  4030
 C         3.664690        -2.585468         0.032536
 C         3.077049        -1.197886         0.240480
 O         2.433568        -0.643652        -0.935064
 C         1.614007         0.206697        -0.081582
 C         0.207584         0.229866        -0.551863
 C         2.316425         1.493544         0.004360
 O         3.616009         1.245452         0.528263
 C         3.471783        -0.046797         1.114840
 C         2.078256        -0.576563         1.205637
 H         3.027774        -3.413753         0.444100
 H         4.156092        -2.634464        -0.869848
 H         4.574177        -2.688423         0.761024
 H        -0.428871        -0.411419         0.131614
 H        -0.140617         1.206775        -0.744633
 H         0.161952        -0.358536        -1.472073
 H         2.449906         1.840156        -1.054679
 H         1.778035         2.233574         0.596500
 H         3.922038        -0.372999         2.038914
 H         1.600825        -0.713300         2.220057
