19
Iteration:  1468charge 0 multiplicity 1
 C         3.576434        -2.630783         0.105207
 C         3.258330        -1.156833         0.091326
 O         2.236985        -0.815582        -0.856811
 C         1.558980         0.158135         0.141663
 C         0.063526        -0.007208         0.145211
 C         2.055979         1.510784        -0.137699
 O         3.549671         1.411617         0.101234
 C         3.790272         0.136265         0.682132
 C         2.540349        -0.463016         1.294844
 H         4.341000        -2.790944        -0.755363
 H         4.067122        -2.981232         1.001684
 H         2.715229        -3.332177        -0.109659
 H        -0.334404        -0.491067         1.016127
 H        -0.428099         0.933466        -0.036303
 H        -0.179706        -0.614240        -0.751816
 H         1.920937         1.829133        -1.166528
 H         1.704259         2.348995         0.477733
 H         4.633879         0.167292         1.424833
 H         1.900369        -0.575481         2.217250
