19
Iteration:   293
 C         3.780814        -2.592826         0.046398
 C         3.139135        -1.205233         0.152988
 O         2.104579        -0.767416        -0.809230
 C         1.561314         0.134851         0.184674
 C         0.049199         0.026999         0.155622
 C         2.174154         1.445375        -0.196603
 O         3.545059         1.365680         0.045011
 C         3.763152         0.096694         0.659741
 C         2.458042        -0.378987         1.322450
 H         4.245271        -2.789766         1.049448
 H         3.057149        -3.347132        -0.212201
 H         4.606672        -2.632699        -0.745051
 H        -0.455291         0.992055        -0.156888
 H        -0.207774        -0.956151        -0.294348
 H        -0.376846        -0.053293         1.219596
 H         2.020602         1.620131        -1.277788
 H         1.661437         2.267777         0.322492
 H         4.760891         0.047907         1.107437
 H         2.227008        -0.446552         2.411630
