19
Iteration:   827
 C         3.984820        -2.306211        -0.116319
 C         3.065969        -1.211166         0.249211
 O         2.117638        -0.831339        -0.747958
 C         1.512713         0.158422         0.076320
 C         0.021576         0.182791         0.317851
 C         2.213418         1.422401        -0.305650
 O         3.597907         1.096638        -0.046775
 C         3.658093        -0.011596         0.814755
 C         2.324192        -0.396786         1.298718
 H         4.580265        -2.601625         0.830275
 H         3.603724        -3.227863        -0.402025
 H         4.748099        -1.844583        -0.773936
 H        -0.551134         0.884618        -0.273278
 H        -0.298938        -0.864533         0.430916
 H        -0.220220         0.585349         1.347725
 H         2.142958         1.525606        -1.408217
 H         1.866590         2.280559         0.209561
 H         4.427238         0.113210         1.496677
 H         1.922536        -0.568873         2.336391
