19
Iteration:  1863
 C         3.637497        -2.609768        -0.082615
 C         3.142406        -1.090333         0.052856
 O         2.441026        -0.544609        -1.014244
 C         1.536224         0.259627         0.027071
 C         0.084621        -0.088668        -0.170967
 C         2.146135         1.577018         0.138217
 O         3.597133         1.264811         0.406082
 C         3.661833         0.005196         1.008118
 C         2.302521        -0.589109         1.174282
 H         4.119384        -2.993875         0.790694
 H         2.782829        -3.274758        -0.370397
 H         4.288480        -2.863276        -0.964680
 H        -0.205514        -1.044570         0.368927
 H        -0.547592         0.753456         0.292766
 H        -0.133100        -0.163506        -1.256372
 H         2.019683         2.297781        -0.662359
 H         1.618385         1.990606         1.037193
 H         4.465864        -0.219575         1.672659
 H         1.903637        -0.965933         2.163485
