19
Iteration:  4452
 C         3.561965        -2.632755         0.167609
 C         3.064455        -1.248697         0.162524
 O         2.569254        -0.664780        -1.062676
 C         1.606861         0.168168        -0.146598
 C         0.207956         0.119123        -0.522125
 C         2.190205         1.639480         0.182260
 O         3.581989         1.371633         0.601405
 C         3.571227        -0.052974         1.065690
 C         2.190349        -0.598771         1.062856
 H         2.619161        -3.147400         0.327579
 H         4.098955        -2.821455        -0.821677
 H         4.135047        -3.068638         1.075307
 H        -0.145884         1.243670        -0.324737
 H         0.060863        -0.244108        -1.511749
 H        -0.446385        -0.275287         0.343811
 H         2.235155         2.173610        -0.778465
 H         1.602139         2.123461         0.999531
 H         4.273396        -0.196653         1.882373
 H         1.493302        -1.220186         1.630575
