19
Iteration:  2353
 C         3.912445        -2.422002        -0.133902
 C         3.068411        -1.144650        -0.028235
 O         2.419349        -0.436064        -1.051246
 C         1.589006         0.199717        -0.059942
 C         0.084675         0.138196        -0.456074
 C         2.329052         1.555033         0.238659
 O         3.548241         1.155982         0.811570
 C         3.469247        -0.213033         1.151910
 C         2.050171        -0.734241         1.063212
 H         3.300578        -3.317897        -0.086027
 H         4.445671        -2.573950        -1.116227
 H         4.631727        -2.448696         0.708020
 H        -0.132996         0.898706        -1.223905
 H        -0.005097        -0.847565        -0.921477
 H        -0.597067         0.314386         0.445968
 H         2.709143         2.198535        -0.619542
 H         1.597506         2.161607         0.850785
 H         4.162937        -0.661543         1.771479
 H         1.417894        -1.190521         1.838580
