19
Iteration:   739charge 0 multiplicity 1
 C         3.515740        -2.614573         0.141572
 C         3.219602        -1.162109         0.039689
 O         2.201605        -0.633778        -0.882316
 C         1.584928         0.177854         0.106225
 C         0.084234        -0.281091         0.225498
 C         2.113560         1.605968        -0.093531
 O         3.625603         1.340405         0.001265
 C         3.760200         0.094283         0.735532
 C         2.508803        -0.364144         1.255161
 H         4.503440        -2.843141         0.639723
 H         2.683280        -3.104965         0.564371
 H         3.503255        -2.985711        -0.916292
 H        -0.358319        -0.306086        -0.807766
 H         0.024203        -1.232022         0.865953
 H        -0.576245         0.479998         0.727393
 H         1.902871         2.118786        -1.068837
 H         1.672349         2.253711         0.734313
 H         4.769912         0.092493         1.285166
 H         2.249016        -0.648574         2.243431
