19
Iteration:  2186
 C         3.712506        -2.480060        -0.253611
 C         3.188669        -1.180400        -0.013805
 O         2.446304        -0.473503        -1.072156
 C         1.593808         0.177391         0.051711
 C         0.147700         0.109679        -0.458037
 C         2.245816         1.517447         0.163216
 O         3.441921         1.300620         0.897716
 C         3.553409        -0.114393         1.161100
 C         2.249193        -0.751626         1.091563
 H         4.678958        -2.495545        -0.765464
 H         3.764439        -3.091459         0.597827
 H         2.988124        -2.971060        -0.896032
 H        -0.302150         1.128650        -0.615491
 H        -0.020844        -0.486283        -1.375952
 H        -0.420939        -0.310860         0.354107
 H         2.584187         1.892177        -0.844326
 H         1.441508         2.104838         0.611248
 H         4.124868        -0.491266         2.023825
 H         1.710598        -1.244437         1.921455
