19
Iteration:  2805charge 0 multiplicity 1
 C         3.582699        -2.509543        -0.058891
 C         3.099796        -1.163020         0.195947
 O         2.594368        -0.449494        -0.918206
 C         1.545619         0.251346        -0.114656
 C         0.099059        -0.087813        -0.494927
 C         2.293133         1.660529         0.131433
 O         3.648002         1.180553         0.574606
 C         3.515343        -0.098661         1.108896
 C         2.088790        -0.601868         1.100169
 H         2.828893        -3.208805        -0.510610
 H         4.499509        -2.636862        -0.623175
 H         3.833225        -2.938222         0.919546
 H        -0.196265        -0.956339         0.115704
 H        -0.592670         0.733770        -0.214198
 H         0.011109        -0.549201        -1.505833
 H         2.350421         2.386737        -0.682012
 H         1.931942         2.299054         0.968866
 H         4.293963        -0.349559         1.870572
 H         1.527920        -1.281728         1.858033
