19
Iteration:  1656charge 0 multiplicity 1
 C         3.669983        -2.509753        -0.015820
 C         3.096571        -1.188829         0.108235
 O         2.344067        -0.538212        -1.015888
 C         1.555553         0.160371         0.084405
 C         0.081923        -0.181420         0.058862
 C         2.233294         1.609420        -0.022067
 O         3.606444         1.248662         0.248095
 C         3.630283         0.015139         0.890878
 C         2.319267        -0.496155         1.229164
 H         4.678028        -2.405026         0.294833
 H         3.077640        -3.241256         0.564205
 H         3.591578        -2.766984        -1.096723
 H        -0.077807        -0.622599        -0.908391
 H        -0.310199        -0.768898         0.886980
 H        -0.414997         0.751802        -0.024410
 H         2.033267         2.330944        -0.837805
 H         1.807419         1.996309         0.962648
 H         4.593624        -0.189913         1.425073
 H         1.823487        -0.755561         2.114696
