19
Iteration:  3466charge 0 multiplicity 1
 C         3.709245        -2.524279        -0.053640
 C         3.119449        -1.231046         0.245189
 O         2.564084        -0.692959        -0.921222
 C         1.504895         0.183950        -0.141666
 C        -0.000704         0.257247        -0.461389
 C         2.407872         1.475570        -0.102557
 O         3.599095         1.275407         0.693812
 C         3.496995        -0.058309         1.206563
 C         2.057918        -0.609430         1.110422
 H         3.047153        -3.296728        -0.027646
 H         4.208536        -2.349172        -1.022625
 H         4.548886        -2.755471         0.660161
 H        -0.228955         1.176463        -1.123644
 H        -0.206078        -0.631218        -1.050664
 H        -0.715836         0.315195         0.375221
 H         2.725163         1.712267        -1.083892
 H         1.865612         2.309112         0.369312
 H         4.203448        -0.096956         2.061938
 H         1.448380        -1.034889         1.969534
