19
Iteration:  3459charge 0 multiplicity 1
 C         3.746061        -2.493964        -0.021237
 C         3.184449        -1.134894         0.242031
 O         2.554071        -0.735783        -0.942574
 C         1.507646         0.200895        -0.165663
 C        -0.026596         0.312046        -0.478799
 C         2.368102         1.415043        -0.072388
 O         3.576423         1.262873         0.706163
 C         3.447240        -0.070895         1.197692
 C         2.095425        -0.617693         1.151877
 H         2.887011        -3.285276        -0.126923
 H         4.207875        -2.565920        -1.067751
 H         4.537764        -3.017743         0.545100
 H        -0.109198         1.147728        -1.176737
 H        -0.326179        -0.565776        -1.030310
 H        -0.540527         0.372079         0.505504
 H         2.648655         1.712184        -1.177324
 H         1.996321         2.456940         0.143546
 H         4.091349        -0.339959         2.058627
 H         1.704407        -1.079138         1.993995
