19
Iteration:  1071charge 0 multiplicity 1
 C         3.751351        -2.471804         0.172782
 C         3.070123        -1.141509         0.158070
 O         2.095977        -0.765179        -0.892587
 C         1.518592         0.152546         0.111160
 C         0.116732        -0.099003         0.339764
 C         2.172792         1.488395        -0.223668
 O         3.689626         1.253618        -0.088303
 C         3.721676         0.106122         0.739315
 C         2.371171        -0.341496         1.251988
 H         3.924154        -2.784169         1.159621
 H         3.061741        -3.226209        -0.348025
 H         4.637512        -2.566219        -0.443974
 H        -0.504963         0.237350        -0.516704
 H         0.045084        -1.197435         0.358470
 H        -0.183007         0.336597         1.285553
 H         1.992401         1.854728        -1.276131
 H         1.983182         2.347877         0.491332
 H         4.695192         0.112237         1.216859
 H         2.153001        -0.651732         2.265745
