19
Iteration:   521
 C         3.483353        -2.594696         0.194135
 C         3.279705        -1.129967         0.053415
 O         2.281196        -0.726443        -0.946385
 C         1.580591         0.085121         0.193024
 C         0.004221        -0.076948         0.196162
 C         2.099233         1.478072        -0.050023
 O         3.533538         1.377203        -0.065193
 C         3.818755         0.171091         0.691904
 C         2.541966        -0.426161         1.243632
 H         4.144536        -2.894827         1.078662
 H         2.539020        -3.033616         0.519621
 H         4.029139        -3.136704        -0.706012
 H        -0.405422         0.235714        -0.777738
 H        -0.134475        -1.166710         0.394776
 H        -0.417018         0.580691         0.994652
 H         1.818728         2.222409        -0.826111
 H         1.869519         1.926797         0.953208
 H         4.738152         0.269405         1.216103
 H         2.142224        -0.891555         2.156386
