19
Iteration:   362charge 0 multiplicity 1
 C         3.572579        -2.562028         0.180868
 C         3.057790        -1.187033         0.088377
 O         2.319775        -0.662064        -0.984259
 C         1.565144         0.229553         0.100966
 C         0.152411        -0.199804         0.240030
 C         2.147185         1.596918        -0.040380
 O         3.534309         1.324909        -0.015886
 C         3.788169         0.088929         0.707894
 C         2.420488        -0.470784         1.240678
 H         4.446018        -2.522644         0.902829
 H         2.738210        -3.261145         0.569187
 H         3.848605        -2.904700        -0.780285
 H        -0.527215        -0.025304        -0.586302
 H         0.194820        -1.270587         0.526214
 H        -0.366049         0.316759         1.074285
 H         1.928361         1.986207        -1.035676
 H         1.954610         2.388161         0.684961
 H         4.733832         0.106472         1.311450
 H         1.988577        -0.765182         2.200856
