19
Iteration:  3527
 C         3.597549        -2.637763         0.136115
 C         3.131597        -1.205567         0.166661
 O         2.468791        -0.510135        -1.018555
 C         1.630633         0.144004        -0.092495
 C         0.074749         0.142624        -0.583917
 C         2.268093         1.529760         0.188234
 O         3.687523         1.271962         0.503666
 C         3.557594        -0.015298         1.153800
 C         2.090205        -0.596707         1.118863
 H         2.798311        -3.352695        -0.400981
 H         4.498652        -2.686912        -0.487963
 H         3.732770        -2.829205         1.198114
 H         0.080715         0.384922        -1.594288
 H        -0.367411        -0.908774        -0.530810
 H        -0.498621         0.757728         0.069284
 H         2.256668         2.257172        -0.663749
 H         1.549625         1.964950         0.965972
 H         4.387069        -0.247927         1.778794
 H         1.915083        -1.257338         1.968392
