19
Iteration:   248
 C         4.077607        -2.252674        -0.025624
 C         3.058910        -1.145271         0.152201
 O         2.064937        -0.917875        -0.837932
 C         1.464764         0.043286         0.031955
 C        -0.011561         0.334633         0.302781
 C         2.217950         1.317565        -0.207272
 O         3.646052         1.152922         0.013995
 C         3.637507         0.064682         0.871542
 C         2.305197        -0.517692         1.244482
 H         4.860971        -2.171424         0.711471
 H         3.694942        -3.249380         0.036162
 H         4.658082        -2.361055        -1.049467
 H        -0.429614         0.963155        -0.585686
 H        -0.443228        -0.660937         0.586974
 H        -0.020837         0.999903         1.240005
 H         1.946128         1.700255        -1.222139
 H         1.861944         2.043989         0.538091
 H         4.654455        -0.172167         1.383008
 H         1.872948        -0.409773         2.200054
