19
Iteration:   849charge 0 multiplicity 1
 C         3.994680        -2.355539        -0.069318
 C         3.004057        -1.188712         0.224758
 O         1.995272        -0.911244        -0.817161
 C         1.516274         0.189076         0.137008
 C         0.034778         0.061574         0.314628
 C         2.223505         1.505080        -0.298465
 O         3.742229         1.185659        -0.074622
 C         3.664545         0.054513         0.820851
 C         2.298879        -0.379840         1.374351
 H         4.349889        -2.963298         0.839606
 H         3.542140        -3.109482        -0.607709
 H         4.898849        -1.938915        -0.563048
 H        -0.454025         0.778551        -0.333112
 H        -0.153319        -0.996443         0.103824
 H        -0.426113         0.254148         1.325230
 H         2.156621         1.655374        -1.373300
 H         1.908384         2.335067         0.254036
 H         4.587499         0.005673         1.219445
 H         1.987752        -0.459011         2.456700
