19
Iteration:   124charge 0 multiplicity 1
 C         3.595004        -2.461363         0.185550
 C         3.129654        -1.103482         0.013766
 O         2.232389        -0.701625        -0.953589
 C         1.560645         0.110685         0.109752
 C         0.095431        -0.169523         0.161853
 C         2.226418         1.517763        -0.001917
 O         3.645862         1.368608         0.017502
 C         3.694904         0.043885         0.720385
 C         2.385088        -0.438155         1.201844
 H         4.015317        -2.536753         1.234259
 H         2.703938        -3.151733         0.249626
 H         4.336675        -2.789755        -0.467691
 H        -0.518773         0.593722        -0.267214
 H        -0.054033        -1.195209        -0.251204
 H        -0.168127        -0.105036         1.240561
 H         1.958195         2.078356        -0.888424
 H         1.826517         2.079607         0.867895
 H         4.471503        -0.065250         1.447967
 H         2.183023        -0.973963         2.200649
