19
Iteration:  1986
 C         3.904960        -2.471230        -0.129967
 C         3.005509        -1.277980         0.110694
 O         2.354154        -0.574523        -1.018651
 C         1.482362         0.189999        -0.014496
 C        -0.023416         0.093079        -0.293197
 C         2.311718         1.515979         0.155073
 O         3.629755         1.235493         0.448058
 C         3.633181        -0.077925         1.086143
 C         2.178471        -0.576026         1.183511
 H         4.097374        -2.860412        -1.127880
 H         4.928267        -2.322651         0.255590
 H         3.519838        -3.237403         0.520604
 H        -0.233306        -0.658910        -1.077848
 H        -0.505864        -0.138661         0.658813
 H        -0.422195         1.126131        -0.573218
 H         2.240913         2.247953        -0.672020
 H         1.806674         2.085177         1.039518
 H         4.303597         0.005518         2.022435
 H         1.657790        -0.979087         2.015862
