19
Iteration:  1659charge 0 multiplicity 1
 C         3.676240        -2.527037        -0.026477
 C         3.084807        -1.171332         0.135582
 O         2.344893        -0.522803        -1.030781
 C         1.562989         0.156621         0.076033
 C         0.095149        -0.174555         0.045538
 C         2.224260         1.592889         0.007388
 O         3.587050         1.250444         0.244398
 C         3.628328         0.021626         0.868874
 C         2.339941        -0.488325         1.240328
 H         4.736833        -2.468346         0.302088
 H         3.090257        -3.260543         0.621714
 H         3.509476        -2.891667        -1.032769
 H        -0.055230        -0.655829        -0.927965
 H        -0.270486        -0.731926         0.881687
 H        -0.430962         0.776792        -0.043707
 H         1.958134         2.262580        -0.834949
 H         1.930616         2.026888         0.970150
 H         4.550186        -0.244329         1.449339
 H         1.781956        -0.770963         2.128431
