19
Iteration:  3274charge 0 multiplicity 1
 C         3.882841        -2.546729         0.137373
 C         3.145086        -1.257839         0.220553
 O         2.581963        -0.641375        -1.017125
 C         1.498899         0.279313        -0.201164
 C         0.052491         0.303256        -0.376517
 C         2.343597         1.549432        -0.032812
 O         3.594850         1.200347         0.611292
 C         3.378894        -0.131115         1.157354
 C         2.002613        -0.675785         1.023589
 H         3.117657        -3.401857         0.157686
 H         4.358088        -2.677440        -0.883436
 H         4.654378        -2.583658         0.968616
 H        -0.271879         1.157854        -1.091322
 H        -0.267909        -0.711109        -0.659190
 H        -0.409792         0.655769         0.636000
 H         2.459597         2.124560        -1.018272
 H         1.745340         2.253705         0.515534
 H         3.905630        -0.290326         2.070365
 H         1.284490        -1.125977         1.768972
