19
Iteration:  4397charge 0 multiplicity 1
 C         3.717605        -2.509761        -0.020550
 C         2.980893        -1.254533         0.299889
 O         2.452576        -0.632162        -0.864308
 C         1.563631         0.245189        -0.014452
 C         0.219075         0.128128        -0.525535
 C         2.405938         1.482304        -0.117515
 O         3.651830         1.251232         0.506424
 C         3.465714        -0.059287         1.168517
 C         1.980030        -0.572249         1.189246
 H         3.013504        -3.215554        -0.465101
 H         4.577829        -2.192189        -0.756070
 H         4.228535        -3.002112         0.880643
 H        -0.565555         0.444867         0.275854
 H        -0.105754         0.866793        -1.259165
 H         0.209963        -0.922855        -0.900869
 H         2.446184         1.987580        -1.108494
 H         1.853203         2.307483         0.500001
 H         4.309031        -0.190174         1.891444
 H         1.418816        -0.912476         2.035218
