19
Iteration:   909charge 0 multiplicity 1
 C         3.540199        -2.648907         0.191382
 C         3.226936        -1.185687         0.135680
 O         2.282098        -0.768550        -0.889794
 C         1.528487         0.101167         0.115544
 C         0.112241        -0.027831         0.239990
 C         2.096088         1.504376        -0.080724
 O         3.478080         1.416243        -0.013371
 C         3.827491         0.226205         0.660833
 C         2.554007        -0.486838         1.197853
 H         4.028078        -2.866248         1.085647
 H         2.534397        -3.217564         0.002812
 H         4.106832        -2.946819        -0.675548
 H        -0.368632        -0.036995        -0.786050
 H        -0.423475        -0.897803         0.660619
 H        -0.234467         0.871025         0.730110
 H         1.746637         1.917533        -1.054793
 H         1.588525         2.101349         0.753537
 H         4.939387         0.266020         1.097801
 H         2.348147        -0.743852         2.203615
