19
Iteration:  4473
 C         3.618821        -2.680372         0.163911
 C         3.200175        -1.201467         0.100367
 O         2.581024        -0.601492        -1.066790
 C         1.574135         0.177683        -0.162827
 C         0.095254         0.288299        -0.486965
 C         2.191880         1.522309         0.101326
 O         3.560229         1.263173         0.634844
 C         3.536434        -0.056679         1.053489
 C         2.157023        -0.634145         1.118870
 H         2.809192        -3.319056         0.299243
 H         4.469909        -2.853716        -0.558080
 H         4.114544        -2.856996         1.183928
 H        -0.476810         1.229362        -0.864052
 H         0.060227        -0.489747        -1.247755
 H        -0.454166        -0.060608         0.458005
 H         2.394110         2.270424        -0.677694
 H         1.623502         1.977468         0.886281
 H         4.239761        -0.186519         1.876937
 H         1.533985        -0.689350         2.001727
