19
Iteration:  3289charge 0 multiplicity 1
 C         3.828258        -2.610679         0.176627
 C         3.026593        -1.240740         0.088313
 O         2.523070        -0.556910        -1.079058
 C         1.645001         0.170315        -0.103635
 C         0.062844         0.266537        -0.426198
 C         2.339441         1.559878        -0.048238
 O         3.542024         1.257144         0.697532
 C         3.457487        -0.093717         1.131355
 C         2.035114        -0.641752         1.082364
 H         3.283243        -3.594271         0.314652
 H         4.432135        -2.827862        -0.659095
 H         4.507875        -2.483264         0.954246
 H        -0.303078         0.908286        -1.186905
 H        -0.447704        -0.720061        -0.831645
 H        -0.431026         0.414821         0.554807
 H         2.646411         1.737465        -1.050245
 H         1.937018         2.457839         0.501312
 H         4.213048        -0.402628         1.946414
 H         1.434811        -1.012096         1.866706
