19
Iteration:  2822charge 0 multiplicity 1
 C         3.647197        -2.550226        -0.042073
 C         3.031393        -1.126034         0.141690
 O         2.452927        -0.438752        -1.030411
 C         1.615624         0.246095         0.009292
 C         0.188075        -0.080184        -0.521786
 C         2.316169         1.534791         0.132529
 O         3.624073         1.195496         0.561892
 C         3.527572        -0.098872         1.139702
 C         2.089068        -0.554679         1.222019
 H         3.012954        -3.081725        -0.742335
 H         4.695423        -2.454885        -0.521339
 H         3.859877        -3.047231         0.928615
 H        -0.094123        -1.124286        -0.313833
 H        -0.619001         0.590980        -0.134810
 H         0.225480         0.149829        -1.575213
 H         2.476466         1.969848        -0.902888
 H         1.808024         2.236383         0.824318
 H         4.080257        -0.469998         2.016636
 H         1.395768        -0.723537         2.057709
