19
Iteration:    57
 C         3.987150        -2.287852        -0.158501
 C         3.153769        -1.128893         0.226627
 O         2.068919        -1.007452        -0.748242
 C         1.531192         0.124196         0.106016
 C        -0.036878         0.311994         0.133178
 C         2.212967         1.272885        -0.321954
 O         3.605987         1.220686         0.123735
 C         3.699553         0.032781         0.942210
 C         2.318927        -0.385054         1.338664
 H         4.960318        -2.576900         0.337435
 H         3.319527        -3.192764        -0.240575
 H         4.239128        -2.067752        -1.145947
 H        -0.217729         1.360776         0.083574
 H        -0.400730        -0.231598        -0.737345
 H        -0.432133        -0.080495         1.072281
 H         2.200567         1.351448        -1.396854
 H         1.844434         2.211299         0.081403
 H         4.588116         0.067511         1.669419
 H         1.741126        -0.951053         2.186636
