19
Iteration:    43
 C         3.958070        -2.265386        -0.128702
 C         3.049666        -1.187339         0.267070
 O         2.047069        -0.966406        -0.744391
 C         1.443567         0.071051         0.143351
 C        -0.061693         0.193462         0.155466
 C         2.385375         1.423342        -0.352281
 O         3.741352         1.235728         0.111437
 C         3.644453         0.094467         0.848135
 C         2.274963        -0.471933         1.343940
 H         4.776666        -2.098256         0.512238
 H         3.611761        -3.264988        -0.178505
 H         4.302498        -2.004130        -1.187621
 H        -0.457119         1.231162         0.122147
 H        -0.576205        -0.228726        -0.694758
 H        -0.469280        -0.430070         0.937634
 H         2.397708         1.438731        -1.452926
 H         1.959883         2.299004         0.115489
 H         4.512658        -0.128798         1.453202
 H         2.035082        -0.831956         2.289254
