19
Iteration:  3751
 C         3.647809        -2.695566        -0.002449
 C         3.043481        -1.256459         0.270495
 O         2.463911        -0.592753        -0.906746
 C         1.626052         0.248913        -0.119597
 C         0.130223         0.088174        -0.447108
 C         2.355634         1.623537        -0.037541
 O         3.594118         1.284244         0.523208
 C         3.540289        -0.004339         1.135279
 C         2.099137        -0.555317         1.156483
 H         3.062363        -3.230612        -0.712587
 H         4.743485        -2.445401        -0.344003
 H         3.845184        -3.307466         0.910786
 H        -0.374461         0.848096         0.136088
 H         0.077688         0.306632        -1.536171
 H        -0.329845        -0.877713        -0.183482
 H         2.454416         1.951822        -1.069245
 H         1.674512         2.179103         0.654448
 H         4.213372        -0.288134         1.973399
 H         1.447532        -0.985236         1.957889
