19
Iteration:  1118
 C         3.449487        -2.629831         0.094657
 C         3.225828        -1.120674         0.168114
 O         2.218637        -0.796597        -0.738759
 C         1.647494         0.137652         0.232858
 C         0.040929        -0.105684         0.087875
 C         2.054739         1.472315        -0.131189
 O         3.567261         1.378027        -0.093839
 C         3.856044         0.252063         0.694896
 C         2.587924        -0.381864         1.271942
 H         4.262493        -2.981708         0.800254
 H         2.553296        -3.187410         0.266138
 H         3.700350        -2.978337        -0.893038
 H        -0.032206        -0.581007        -0.919242
 H        -0.288326        -0.985162         0.747716
 H        -0.605570         0.766359         0.278891
 H         1.775310         1.727668        -1.133709
 H         1.604303         2.200273         0.548478
 H         4.802198         0.334977         1.247729
 H         2.359431        -0.503262         2.447800
