19
Iteration:  4295
 C         3.601823        -2.578610         0.070224
 C         3.090581        -1.228088         0.213766
 O         2.478903        -0.702716        -0.952072
 C         1.662086         0.216385        -0.082219
 C         0.128682         0.053025        -0.479425
 C         2.343060         1.639260         0.001423
 O         3.648151         1.291567         0.501496
 C         3.492988        -0.035865         1.174452
 C         2.101451        -0.517794         1.179937
 H         2.684988        -3.185685        -0.170165
 H         4.088686        -2.718532        -0.915279
 H         4.154930        -2.954076         0.885604
 H        -0.570197        -0.308933         0.232734
 H        -0.223677         1.060617        -0.937258
 H         0.060253        -0.538239        -1.415524
 H         2.469225         2.146852        -0.957085
 H         1.703667         2.208040         0.758313
 H         4.226669        -0.191825         1.952124
 H         1.385635        -0.921998         1.956893
