19
Iteration:  2512
 C         4.030267        -2.418259        -0.197530
 C         3.149461        -1.235543         0.071033
 O         2.442991        -0.650277        -0.997248
 C         1.531265         0.137797         0.032517
 C         0.086979         0.458060        -0.504358
 C         2.189665         1.493291         0.086439
 O         3.498118         1.245795         0.807048
 C         3.421526        -0.148170         1.120627
 C         2.106689        -0.863176         1.130949
 H         3.427604        -3.305811        -0.742626
 H         4.944217        -2.121124        -0.756062
 H         4.406882        -2.846003         0.783421
 H        -0.666576         0.092713         0.220416
 H         0.021931         1.571591        -0.486628
 H        -0.225278         0.145277        -1.455155
 H         2.230178         1.885602        -0.917971
 H         1.677502         2.156839         0.854447
 H         4.222019        -0.233080         1.786511
 H         1.759093        -1.374270         2.004331
