19
Iteration:  4308
 C         3.643511        -2.599291         0.148834
 C         3.071823        -1.195846         0.196278
 O         2.456666        -0.679943        -1.007419
 C         1.513028         0.141189        -0.115456
 C         0.058500         0.167393        -0.549051
 C         2.328941         1.592526         0.021314
 O         3.689686         1.315496         0.560999
 C         3.577031        -0.029958         1.106959
 C         2.128119        -0.627869         1.155714
 H         2.904968        -3.374235         0.006553
 H         4.605227        -2.542088        -0.492255
 H         4.057576        -2.879002         1.117808
 H        -0.549863        -0.186506         0.311947
 H        -0.213290         1.265892        -0.666234
 H        -0.167815        -0.504188        -1.382116
 H         2.405552         2.064454        -0.978230
 H         1.875852         2.392869         0.737882
 H         4.246528        -0.308284         1.891637
 H         1.697364        -0.880369         2.130669
