19
Iteration:  2588
 C         3.625716        -2.557642        -0.184988
 C         3.133888        -1.156535         0.064706
 O         2.682522        -0.320537        -1.027008
 C         1.619248         0.221614        -0.110625
 C         0.178229        -0.014438        -0.406689
 C         2.190905         1.530882         0.177980
 O         3.531415         1.254753         0.688607
 C         3.429654        -0.186597         1.216852
 C         2.094205        -0.689186         1.146017
 H         2.760722        -3.325915        -0.378607
 H         4.188177        -2.613411        -1.131179
 H         4.369097        -2.729581         0.613827
 H         0.124287        -1.004459        -0.941112
 H        -0.529127         0.135657         0.480074
 H        -0.166479         0.680868        -1.190014
 H         2.449504         2.181078        -0.604870
 H         1.576156         2.105198         0.901494
 H         4.076255        -0.272724         2.013468
 H         1.525895        -1.273592         1.930886
