19
Iteration:   426charge 0 multiplicity 1
 C         4.020950        -2.389981        -0.212598
 C         3.123940        -1.263811         0.205726
 O         2.031532        -0.945640        -0.722395
 C         1.541901         0.093526         0.226236
 C         0.094550         0.348841         0.109766
 C         2.111857         1.388046        -0.334004
 O         3.505915         1.287129         0.146309
 C         3.695780         0.059342         0.838146
 C         2.438199        -0.502907         1.370131
 H         4.689826        -2.876822         0.559682
 H         3.404673        -3.236752        -0.280783
 H         4.559369        -2.079640        -1.054912
 H        -0.191184         0.452553        -0.944915
 H        -0.522899        -0.468267         0.535988
 H        -0.015378         1.352253         0.557755
 H         1.773805         1.283692        -1.387871
 H         1.695435         2.321882         0.037038
 H         4.609804         0.066350         1.470929
 H         2.108620        -0.493959         2.397312
