19
Iteration:  3438
 C         3.767334        -2.532270        -0.004520
 C         3.175961        -1.214149         0.152781
 O         2.392115        -0.691415        -0.998218
 C         1.595056         0.079223        -0.104595
 C         0.205255         0.361490        -0.445684
 C         2.338387         1.445892        -0.110875
 O         3.475252         1.308181         0.734792
 C         3.474838        -0.064756         1.191514
 C         2.085413        -0.655526         1.152982
 H         3.023681        -3.433136        -0.099868
 H         4.548866        -2.624954        -0.789473
 H         4.379732        -2.712017         0.896491
 H         0.241441         1.046360        -1.285192
 H        -0.333202        -0.527697        -0.780460
 H        -0.347519         0.787391         0.404876
 H         2.610675         1.914596        -1.120298
 H         1.687835         2.281979         0.317917
 H         4.249054        -0.024725         1.953155
 H         1.401458        -1.024555         1.860484
