19
Iteration:  4361
 C         3.894453        -2.535072         0.182255
 C         3.049564        -1.230798         0.207779
 O         2.427389        -0.745669        -0.967260
 C         1.537679         0.185159        -0.169147
 C         0.014115         0.366791        -0.421301
 C         2.361937         1.448118        -0.064341
 O         3.652427         1.266855         0.569896
 C         3.493733        -0.079020         1.099759
 C         2.038394        -0.560049         1.104781
 H         3.321394        -3.222737        -0.475012
 H         4.876081        -2.384901        -0.346732
 H         4.004063        -3.050185         1.091674
 H        -0.497164        -0.011993         0.423260
 H        -0.177995         1.416894        -0.836040
 H        -0.314130        -0.332892        -1.190023
 H         2.556502         1.995143        -0.989052
 H         1.840329         2.014962         0.709615
 H         4.127471        -0.364302         1.927343
 H         1.360439        -0.947557         1.879548
