19
Iteration:  4083
 C         3.645667        -2.719376         0.188217
 C         3.100761        -1.158189         0.132985
 O         2.495485        -0.544762        -1.069992
 C         1.634661         0.186611        -0.071080
 C         0.209192         0.157238        -0.448440
 C         2.235299         1.577617         0.006729
 O         3.587504         1.271969         0.596856
 C         3.516712        -0.065699         1.073223
 C         2.093019        -0.590871         1.104177
 H         2.783417        -3.391989         0.059507
 H         4.352366        -3.064418        -0.534324
 H         4.090726        -2.795634         1.209449
 H        -0.398866         0.694430         0.382486
 H         0.183026         0.652824        -1.360634
 H        -0.262282        -0.810616        -0.531735
 H         2.419914         2.115620        -0.951050
 H         1.802201         2.100983         0.858175
 H         4.196093        -0.352345         1.844766
 H         1.338608        -0.830556         1.872224
