19
Iteration:   281charge 0 multiplicity 1
 C         3.926846        -2.493097         0.041730
 C         3.093277        -1.269606         0.176076
 O         2.130887        -0.824785        -0.793271
 C         1.514027         0.208766         0.106074
 C         0.002362         0.160003         0.265815
 C         2.149304         1.519096        -0.258615
 O         3.533944         1.259894         0.031531
 C         3.733109         0.053369         0.757638
 C         2.434775        -0.503316         1.236949
 H         4.447144        -2.625850         0.999755
 H         3.357321        -3.390625        -0.071451
 H         4.725815        -2.329936        -0.784501
 H        -0.582407         0.932953        -0.342948
 H        -0.420050        -0.730456        -0.246677
 H        -0.186768         0.133669         1.377510
 H         1.986103         1.699526        -1.344632
 H         1.878789         2.373086         0.357148
 H         4.796477         0.006216         1.153834
 H         2.154805        -0.544113         2.282189
