19
Iteration:  3320
 C         3.596016        -2.521175         0.060911
 C         3.122295        -1.137551         0.101973
 O         2.390107        -0.758452        -0.997156
 C         1.607249         0.160012        -0.098735
 C         0.226737         0.154818        -0.569738
 C         2.341953         1.574205         0.040244
 O         3.554576         1.338045         0.758136
 C         3.570974        -0.005002         1.108861
 C         2.145251        -0.622762         1.168998
 H         2.729233        -3.215575        -0.272081
 H         4.263548        -2.740375        -0.732569
 H         4.102030        -2.797107         0.961829
 H        -0.048680         0.622053        -1.529901
 H        -0.034478        -0.980396        -0.744645
 H        -0.594132         0.466027         0.159486
 H         2.427601         1.984871        -0.985092
 H         1.919392         2.380487         0.587757
 H         4.276344        -0.445672         1.873161
 H         1.572434        -1.177349         1.879736
