19
Iteration:  4142charge 0 multiplicity 1
 C         3.826636        -2.546711        -0.128381
 C         3.000791        -1.259951         0.251370
 O         2.345107        -0.727660        -0.862284
 C         1.570435         0.288999        -0.041940
 C         0.168578         0.159684        -0.551800
 C         2.397470         1.560725        -0.047056
 O         3.635866         1.208071         0.541693
 C         3.466742        -0.063513         1.183294
 C         2.059132        -0.489171         1.269116
 H         3.317170        -3.025058        -0.995832
 H         4.861363        -2.205351        -0.257525
 H         3.812840        -3.341064         0.605152
 H        -0.260097         1.105720        -0.648607
 H         0.048844        -0.286094        -1.595292
 H        -0.379284        -0.471602         0.165766
 H         2.553036         2.082718        -0.976272
 H         2.030617         2.378562         0.525254
 H         4.041532        -0.388922         2.088537
 H         1.449429        -0.743812         2.126487
