19
Iteration:  3142
 C         3.682603        -2.566717         0.157134
 C         3.096745        -1.225089         0.141109
 O         2.593348        -0.494386        -1.048468
 C         1.588009         0.210959        -0.110396
 C         0.141220         0.125588        -0.454602
 C         2.286768         1.556207         0.038620
 O         3.589058         1.221998         0.628809
 C         3.466454        -0.092906         1.135356
 C         2.062017        -0.617518         1.036695
 H         2.929962        -3.275953        -0.039789
 H         4.500662        -2.611737        -0.575955
 H         4.065767        -2.976114         1.119650
 H        -0.326549         0.937929        -1.167434
 H        -0.250004        -0.867964        -0.713007
 H        -0.400604         0.359421         0.560859
 H         2.512191         1.905068        -1.058579
 H         1.606094         2.177926         0.671889
 H         4.142248        -0.169356         2.009156
 H         1.475935        -1.205384         1.692474
