19
Iteration:  1938charge 0 multiplicity 1
 C         3.933045        -2.505139        -0.195257
 C         3.172211        -1.237568         0.112284
 O         2.286331        -0.721045        -0.929000
 C         1.531229         0.077525         0.015616
 C        -0.028430         0.351603        -0.262885
 C         2.221995         1.460872        -0.050345
 O         3.576139         1.357465         0.567354
 C         3.529097        -0.031663         1.011055
 C         2.293391        -0.687075         1.291177
 H         4.903370        -2.218627        -0.569639
 H         4.231496        -2.976877         0.784709
 H         3.442105        -3.366882        -0.663700
 H        -0.324409        -0.280043        -1.127839
 H        -0.689868         0.119527         0.632490
 H        -0.204897         1.397859        -0.540460
 H         2.255400         1.942334        -1.033168
 H         1.498145         2.110553         0.580566
 H         4.394788        -0.308610         1.537740
 H         1.910961        -1.151043         2.243075
