19
Iteration:   986charge 0 multiplicity 1
 C         3.820693        -2.507043        -0.057303
 C         3.187056        -1.201200         0.226890
 O         2.149572        -0.852342        -0.728144
 C         1.547551         0.056102         0.158597
 C        -0.043815         0.107301         0.156045
 C         2.216910         1.448308        -0.254118
 O         3.602095         1.291911         0.013513
 C         3.724014         0.145564         0.754881
 C         2.378461        -0.373668         1.339683
 H         4.859138        -2.622894         0.142686
 H         3.195427        -3.261858         0.472357
 H         3.806335        -2.534020        -1.132722
 H        -0.393918         0.502713        -0.836911
 H        -0.463329        -0.937856         0.204198
 H        -0.425945         0.666839         1.002189
 H         1.994737         1.554836        -1.302335
 H         1.796434         2.235746         0.318221
 H         4.637216         0.213453         1.367647
 H         2.044806        -0.365077         2.408975
