19
Iteration:  4037
 C         3.659648        -2.557721         0.117786
 C         3.072108        -1.189929         0.201237
 O         2.439280        -0.651709        -0.971935
 C         1.627886         0.173804        -0.070661
 C         0.207697         0.173775        -0.528971
 C         2.301978         1.499178         0.037951
 O         3.656433         1.295506         0.525478
 C         3.445288        -0.116906         1.111084
 C         2.054759        -0.522879         1.178571
 H         2.956486        -3.349371         0.291686
 H         4.010768        -2.761160        -0.963127
 H         4.498752        -2.534430         0.757330
 H        -0.526090        -0.234222         0.212560
 H        -0.053227         1.213507        -0.787964
 H         0.144821        -0.387964        -1.451321
 H         2.544081         1.905509        -0.954057
 H         1.864952         2.197710         0.762424
 H         4.221675        -0.242192         1.901711
 H         1.426850        -1.022916         1.927066
