19
Iteration:   564
 C         3.572977        -2.723027         0.050847
 C         3.118206        -1.132989         0.145615
 O         2.207940        -0.742690        -0.816723
 C         1.571016         0.226659         0.179600
 C         0.021774        -0.192649         0.145698
 C         2.093356         1.596595        -0.061217
 O         3.611977         1.416426        -0.025547
 C         3.833697         0.154890         0.682918
 C         2.538122        -0.371406         1.309047
 H         4.389890        -3.103320         0.660146
 H         2.734667        -3.152438         0.538763
 H         3.792244        -3.047954        -0.996998
 H        -0.074263        -0.440265        -0.918036
 H        -0.067797        -1.234483         0.519693
 H        -0.808139         0.483602         0.399961
 H         1.898342         1.940936        -1.079499
 H         1.834773         2.300303         0.705389
 H         4.847448         0.038229         0.972943
 H         2.394162        -0.652074         2.344718
