19
Iteration:   891charge 0 multiplicity 1
 C         3.649317        -2.651740         0.068586
 C         3.246033        -1.199545         0.111838
 O         2.139159        -0.815503        -0.840591
 C         1.630438         0.086510         0.209070
 C         0.102487         0.100462         0.185154
 C         2.024267         1.481920        -0.157694
 O         3.498502         1.446211        -0.033927
 C         3.753336         0.152275         0.676475
 C         2.584357        -0.461747         1.329748
 H         3.833799        -2.944502         1.208367
 H         2.769893        -3.195938        -0.176406
 H         4.639817        -2.860088        -0.447576
 H        -0.159789         0.333017        -0.831594
 H        -0.219641        -0.972242         0.274101
 H        -0.243245         0.754076         0.992501
 H         1.817631         1.624396        -1.202657
 H         1.684739         2.340419         0.499297
 H         4.562386         0.124504         1.336694
 H         2.275937        -0.793065         2.355748
