19
Iteration:  1616charge 0 multiplicity 1
 C         3.819198        -2.527654        -0.139466
 C         3.118569        -1.140453         0.086345
 O         2.184232        -0.762498        -0.878298
 C         1.566336         0.099174         0.095274
 C         0.054088         0.065711         0.033489
 C         2.176311         1.493768        -0.127820
 O         3.560281         1.371069         0.338783
 C         3.693317         0.032732         0.899085
 C         2.339736        -0.526200         1.293563
 H         4.183783        -3.036375         0.793551
 H         3.290458        -3.289054        -0.821751
 H         4.700061        -2.388108        -0.784911
 H        -0.133083         0.155662        -1.072917
 H        -0.478902        -0.799975         0.447135
 H        -0.377525         1.003969         0.472454
 H         2.393021         1.721679        -1.200897
 H         1.625012         2.272421         0.380422
 H         4.651354        -0.080441         1.514890
 H         2.064724        -0.666063         2.331653
