19
Iteration:  3031
 C         3.767991        -2.558773         0.182080
 C         3.110943        -1.253324         0.126253
 O         2.432427        -0.579369        -1.056305
 C         1.572774         0.229896        -0.159991
 C         0.104373         0.125802        -0.455547
 C         2.346374         1.638440         0.019785
 O         3.642644         1.194671         0.679101
 C         3.453667        -0.166932         1.090445
 C         2.003166        -0.501732         1.064547
 H         3.199763        -3.337335        -0.177334
 H         4.703017        -2.454310        -0.390810
 H         3.983851        -2.730631         1.221510
 H        -0.311143         0.779576        -1.250203
 H        -0.026164        -0.929573        -0.898750
 H        -0.336754         0.203562         0.542926
 H         2.711111         2.084526        -0.945091
 H         1.929903         2.287090         0.768856
 H         4.120550        -0.405111         1.898726
 H         1.562648        -0.905140         1.965242
