19
Iteration:  2265
 C         3.805146        -2.463676        -0.325943
 C         3.088965        -1.204923         0.077915
 O         2.424633        -0.479876        -0.977660
 C         1.515679         0.194207         0.036596
 C         0.167558         0.221630        -0.647078
 C         2.193986         1.499485         0.339835
 O         3.557130         1.201478         0.796575
 C         3.537725        -0.149832         1.156786
 C         2.156913        -0.766347         1.146628
 H         3.823360        -2.550792        -1.391916
 H         4.864426        -2.089058        -0.179500
 H         3.582658        -3.419686         0.201116
 H         0.229946        -0.085677        -1.697108
 H        -0.265559        -0.639616        -0.124897
 H        -0.611566         1.003228        -0.537948
 H         2.402854         2.218717        -0.496572
 H         1.484789         2.124394         0.915489
 H         4.356881        -0.171210         1.919869
 H         1.878848        -1.306347         2.000501
