19
Iteration:   985
 C         3.819273        -2.506298        -0.061477
 C         3.177906        -1.202049         0.223498
 O         2.152272        -0.838617        -0.723986
 C         1.550850         0.059711         0.159848
 C        -0.037870         0.090947         0.156943
 C         2.217228         1.455421        -0.254250
 O         3.605912         1.282639         0.017902
 C         3.720598         0.148855         0.747518
 C         2.372215        -0.370641         1.341982
 H         4.832537        -2.584381         0.171029
 H         3.205322        -3.286165         0.487198
 H         3.795948        -2.584532        -1.133119
 H        -0.407542         0.448279        -0.850435
 H        -0.471659        -0.935348         0.206334
 H        -0.437736         0.665873         0.992255
 H         1.996177         1.564964        -1.316372
 H         1.802898         2.221973         0.310720
 H         4.681622         0.184323         1.374270
 H         2.077020        -0.320727         2.393179
