19
Iteration:  4187charge 0 multiplicity 1
 C         3.862215        -2.582980         0.114212
 C         3.151491        -1.201776         0.138924
 O         2.379380        -0.663788        -0.996356
 C         1.616782         0.146948        -0.089927
 C         0.050507         0.396344        -0.397932
 C         2.297453         1.534512        -0.015666
 O         3.610594         1.174024         0.539036
 C         3.474044        -0.090314         1.143223
 C         2.064970        -0.632823         1.080678
 H         3.296787        -3.428348        -0.274480
 H         4.973579        -2.511377        -0.141260
 H         3.885318        -2.752614         1.168404
 H        -0.332808         1.373671        -0.374182
 H        -0.033535         0.184827        -1.522885
 H        -0.551737        -0.393674         0.017171
 H         2.390876         2.148624        -0.890627
 H         1.743183         2.175364         0.645355
 H         4.013474        -0.170757         2.123801
 H         1.617607        -1.038987         1.993098
