19
Iteration:  4677
 C         3.640805        -2.548836        -0.221199
 C         3.129259        -1.169286         0.218953
 O         2.520099        -0.519019        -0.937610
 C         1.573753         0.167999         0.006764
 C         0.153242         0.079021        -0.551336
 C         2.287897         1.505952         0.080610
 O         3.579118         1.268894         0.679858
 C         3.494672        -0.050901         1.165694
 C         2.117910        -0.620902         1.247059
 H         2.595165        -2.987182        -0.557534
 H         4.256296        -2.518008        -1.149126
 H         4.152071        -3.137525         0.534099
 H        -0.697114         0.355677         0.114213
 H         0.227278         0.677034        -1.531280
 H         0.111988        -0.866418        -1.079558
 H         2.544293         1.907052        -0.931209
 H         1.622546         2.230726         0.512938
 H         4.215625        -0.361295         1.863564
 H         1.669563        -1.052163         2.121824
