19
Iteration:  3710
 C         3.524673        -2.559883         0.076767
 C         3.100457        -1.193383         0.185615
 O         2.463812        -0.529997        -1.001137
 C         1.607388         0.198605        -0.111575
 C         0.111436        -0.006495        -0.470728
 C         2.333757         1.577708         0.020439
 O         3.676463         1.266910         0.551439
 C         3.533428        -0.054703         1.179276
 C         2.117478        -0.557473         1.146295
 H         2.792494        -3.092052        -0.523233
 H         4.386176        -2.735527        -0.616108
 H         3.721051        -2.959312         1.030510
 H        -0.414884         0.935563        -0.603118
 H         0.189760        -0.623686        -1.474434
 H        -0.348353        -0.611208         0.373155
 H         2.655682         2.078359        -0.981768
 H         1.935155         2.271330         0.789431
 H         4.245829        -0.059084         2.061103
 H         1.704353        -1.243220         1.941337
