19
Iteration:    60charge 0 multiplicity 1
 C         3.997863        -2.312466        -0.155885
 C         3.175874        -1.153525         0.225557
 O         2.072907        -0.992554        -0.751911
 C         1.535389         0.112397         0.108543
 C        -0.005291         0.331831         0.137727
 C         2.186312         1.285000        -0.325164
 O         3.571865         1.229039         0.125387
 C         3.697134         0.034572         0.960226
 C         2.332364        -0.388808         1.342411
 H         4.963700        -2.611314         0.346005
 H         3.243614        -3.157813        -0.293679
 H         4.265694        -2.178985        -1.221882
 H        -0.136746         1.417920        -0.065154
 H        -0.463952        -0.208952        -0.738819
 H        -0.445789        -0.133006         1.062249
 H         2.194352         1.319731        -1.432022
 H         1.759308         2.225787         0.117818
 H         4.568233         0.034175         1.600090
 H         1.741378        -0.816071         2.243617
