19
Iteration:  1012
 C         3.874540        -2.494754        -0.038776
 C         3.141697        -1.218731         0.160367
 O         2.127757        -1.037664        -0.743342
 C         1.561885         0.027674         0.109001
 C         0.062606         0.351087         0.196412
 C         2.098305         1.419873        -0.305574
 O         3.509115         1.323415         0.046354
 C         3.708924         0.221248         0.826556
 C         2.453772        -0.501729         1.291433
 H         4.727165        -2.468110         0.765422
 H         3.233476        -3.287218         0.258255
 H         4.494579        -2.534840        -0.976457
 H        -0.100020         1.240872        -0.415574
 H        -0.567065        -0.495470        -0.097854
 H        -0.180283         0.602713         1.254468
 H         1.911193         1.579923        -1.381172
 H         1.549703         2.219840         0.342107
 H         4.710567         0.224491         1.254000
 H         2.249376        -0.729493         2.376949
