19
Iteration:  4402
 C         3.678212        -2.524009        -0.024037
 C         3.004759        -1.240281         0.340750
 O         2.456313        -0.598942        -0.872924
 C         1.595806         0.255478        -0.002090
 C         0.165638         0.093192        -0.543416
 C         2.363110         1.536135        -0.117508
 O         3.685152         1.248446         0.535355
 C         3.530226        -0.063293         1.145396
 C         1.972244        -0.594229         1.179807
 H         2.973997        -3.331401        -0.352446
 H         4.403426        -2.151503        -0.645385
 H         4.217996        -2.968735         0.786794
 H        -0.593349         0.384099         0.113396
 H         0.133610         0.777283        -1.443627
 H         0.077689        -0.966843        -0.770639
 H         2.353936         1.863497        -1.166883
 H         1.791456         2.259802         0.474869
 H         4.371105        -0.236434         1.768529
 H         1.340413        -0.979593         2.014691
