19
Iteration:  3149charge 0 multiplicity 1
 C         3.680028        -2.643919         0.137149
 C         3.086173        -1.215816         0.198146
 O         2.626229        -0.447840        -1.059222
 C         1.611228         0.170341        -0.163574
 C         0.118689         0.135037        -0.405048
 C         2.315364         1.561558         0.043906
 O         3.550518         1.230941         0.599231
 C         3.502900        -0.027243         1.188560
 C         2.030764        -0.644869         0.973576
 H         2.846744        -3.342518        -0.216707
 H         4.577284        -2.726302        -0.628415
 H         3.972075        -2.936523         1.166785
 H        -0.327523         0.706562        -1.204809
 H        -0.321145        -0.924077        -0.520889
 H        -0.200591         0.445192         0.566300
 H         2.344885         1.908890        -0.984025
 H         1.730812         2.190834         0.755995
 H         4.074585        -0.165304         2.139013
 H         1.394248        -1.103142         1.723021
