19
Iteration:   708charge 0 multiplicity 1
 C         3.560711        -2.523632         0.028067
 C         3.075328        -1.192745         0.202422
 O         2.288628        -0.690443        -0.853756
 C         1.561943         0.179923         0.133994
 C         0.101208        -0.196734         0.293337
 C         2.115861         1.549578        -0.147706
 O         3.651310         1.286192        -0.098823
 C         3.776359         0.133557         0.767284
 C         2.435894        -0.400036         1.225139
 H         4.365645        -2.900634         0.748711
 H         2.776013        -3.216236         0.034385
 H         4.079750        -2.326503        -0.936599
 H        -0.536590         0.252582        -0.501717
 H         0.040452        -1.340177         0.369142
 H        -0.363900         0.271288         1.224664
 H         1.794230         1.868616        -1.211146
 H         1.693442         2.214029         0.724200
 H         4.539904         0.204471         1.611081
 H         2.099152        -0.559737         2.239198
