19
Iteration:  4934
 C         3.937508        -2.306436        -0.371017
 C         3.025977        -1.266715         0.181386
 O         2.404407        -0.611961        -0.982593
 C         1.589560         0.125340        -0.082577
 C         0.174600         0.261293        -0.459487
 C         2.348263         1.458647         0.163153
 O         3.553622         1.169824         0.852451
 C         3.384896        -0.107786         1.211186
 C         2.061436        -0.662434         1.108484
 H         3.366661        -2.779109        -1.289540
 H         4.995009        -1.928028        -0.638829
 H         4.186519        -3.140265         0.311901
 H        -0.567605        -0.320578         0.126966
 H        -0.071470         1.359128        -0.627562
 H         0.000671        -0.283433        -1.401721
 H         2.615502         1.941615        -0.810500
 H         1.673550         2.184839         0.593340
 H         3.906472        -0.259993         2.138024
 H         1.347583        -1.133111         1.798849
