19
Iteration:  3908charge 0 multiplicity 1
 C         3.520522        -2.601501         0.216334
 C         3.103518        -1.208428         0.209430
 O         2.482401        -0.687975        -0.961688
 C         1.645373         0.132235        -0.097997
 C         0.173515         0.170644        -0.474183
 C         2.305828         1.532828         0.019543
 O         3.643311         1.348744         0.426726
 C         3.561412         0.010603         1.111906
 C         2.104443        -0.588783         1.127847
 H         2.674280        -3.134045        -0.331665
 H         4.460068        -2.701489        -0.377279
 H         3.599618        -3.189949         1.141060
 H        -0.011214        -0.710846        -1.164577
 H        -0.454564        -0.029809         0.404402
 H        -0.086617         1.095156        -0.996375
 H         2.274682         2.086503        -0.972868
 H         1.715277         2.210768         0.703836
 H         4.341635        -0.081376         1.887826
 H         1.560539        -0.890134         2.021742
