19
Iteration:   862charge 0 multiplicity 1
 C         3.856219        -2.415146        -0.014844
 C         3.069273        -1.213391         0.228819
 O         2.071811        -0.877500        -0.733239
 C         1.487317         0.153298         0.117149
 C        -0.083511         0.053736         0.233673
 C         2.247301         1.483712        -0.262657
 O         3.672161         1.301213        -0.024976
 C         3.744077         0.044463         0.676333
 C         2.477042        -0.387378         1.346431
 H         4.078619        -2.848316         0.954398
 H         3.375579        -3.103149        -0.702196
 H         4.795632        -2.104746        -0.461540
 H        -0.694649         0.586448        -0.514967
 H        -0.379245        -0.964834         0.050596
 H        -0.312051         0.337299         1.309273
 H         2.082500         1.729568        -1.341770
 H         1.903170         2.313882         0.344908
 H         4.574768        -0.147632         1.299914
 H         2.143762        -0.618416         2.394743
