19
Iteration:  2015
 C         3.661932        -2.510935        -0.184277
 C         3.151946        -1.163443         0.068318
 O         2.476901        -0.512512        -0.961798
 C         1.574771         0.188183         0.000137
 C         0.187124        -0.058161        -0.255465
 C         2.286347         1.602861         0.084109
 O         3.563321         1.305764         0.513651
 C         3.541229        -0.092437         1.047998
 C         2.105716        -0.634481         1.226023
 H         2.981913        -3.068186        -0.834943
 H         4.684956        -2.656229        -0.598969
 H         3.430486        -2.980914         0.794898
 H         0.069666        -1.061743        -0.745700
 H        -0.365368        -0.054156         0.702728
 H        -0.338087         0.728617        -0.787078
 H         2.290362         2.166769        -0.844201
 H         1.697248         2.107651         0.858596
 H         4.267295        -0.127887         1.816993
 H         1.586722        -1.119692         2.077602
