19
Iteration:  4322charge 0 multiplicity 1
 C         3.761407        -2.586184         0.252348
 C         3.134023        -1.205548         0.140802
 O         2.379851        -0.629690        -0.994595
 C         1.619946         0.195834        -0.083194
 C         0.076838         0.295433        -0.501746
 C         2.300877         1.454695         0.009417
 O         3.578049         1.223515         0.587166
 C         3.549426        -0.087819         0.986820
 C         2.136934        -0.540044         1.148968
 H         3.126294        -3.309097        -0.256038
 H         4.691166        -2.813320        -0.341556
 H         3.904202        -2.666165         1.380705
 H        -0.629843        -0.068760         0.349747
 H        -0.348140         1.216275        -0.809800
 H         0.020127        -0.291079        -1.433055
 H         2.472053         1.889192        -1.008942
 H         1.649937         2.127308         0.636349
 H         4.305666        -0.225442         1.793249
 H         1.581748        -1.080126         1.881270
