19
Iteration:  4897
 C         3.938723        -2.484407        -0.132967
 C         3.095554        -1.255479         0.042069
 O         2.428480        -0.460975        -1.058372
 C         1.546138         0.124090        -0.009574
 C         0.042199         0.307456        -0.533512
 C         2.261393         1.525411         0.229368
 O         3.516838         1.209263         0.838453
 C         3.532347        -0.136101         1.058235
 C         2.111067        -0.786859         1.074118
 H         3.434059        -3.243931        -0.611441
 H         4.924643        -2.287440        -0.539567
 H         3.959281        -2.849480         0.909612
 H        -0.557799        -0.554990        -0.279164
 H        -0.416005         1.113727        -0.147048
 H         0.181693         0.493031        -1.601425
 H         2.492463         2.003883        -0.719658
 H         1.810059         2.185282         1.007960
 H         4.076008        -0.468027         1.954511
 H         1.688521        -1.297535         1.930943
