19
Iteration:  4424
 C         3.587138        -2.568991         0.023779
 C         3.095374        -1.173755         0.170443
 O         2.480575        -0.579911        -0.935459
 C         1.535750         0.208588        -0.060559
 C         0.149193         0.025093        -0.622243
 C         2.349553         1.552697         0.034819
 O         3.598960         1.224891         0.583801
 C         3.526895        -0.070523         1.139828
 C         2.175808        -0.494116         1.226503
 H         2.653457        -3.199542         0.110707
 H         4.194785        -2.701047        -0.815871
 H         4.138249        -2.892006         0.875607
 H        -0.426782         0.806789        -0.229675
 H         0.135783         0.171952        -1.726282
 H        -0.254576        -0.918560        -0.264291
 H         2.511449         2.009152        -0.954806
 H         1.850498         2.349379         0.660322
 H         4.193185        -0.214065         1.964445
 H         1.749870        -0.880743         2.173199
