19
Iteration:  4757charge 0 multiplicity 1
 C         3.920597        -2.467690         0.026316
 C         3.043383        -1.184240         0.045157
 O         2.475642        -0.510383        -1.073988
 C         1.555306         0.199044        -0.007261
 C         0.143588         0.311467        -0.397998
 C         2.302534         1.459233         0.154773
 O         3.534063         1.200382         0.646016
 C         3.473476        -0.152082         1.071214
 C         2.014736        -0.785462         1.083650
 H         3.528523        -3.313315        -0.477073
 H         4.912154        -2.154110        -0.475240
 H         4.101535        -2.880370         1.083001
 H        -0.047407         1.215201        -1.067858
 H        -0.116937        -0.483307        -0.979636
 H        -0.445950         0.439401         0.600370
 H         2.358439         1.995886        -0.799113
 H         1.631461         1.903862         0.877954
 H         4.287230        -0.401721         1.804065
 H         1.241238        -1.328437         1.684177
