19
Iteration:   114charge 0 multiplicity 1
 C         3.690704        -2.473036         0.133139
 C         3.162613        -1.093286         0.017177
 O         2.108872        -0.767127        -0.920246
 C         1.547357         0.118035         0.080419
 C         0.072835        -0.084478         0.126648
 C         2.216847         1.500417        -0.065353
 O         3.626600         1.283016         0.106384
 C         3.728578         0.120021         0.749350
 C         2.448084        -0.427032         1.275414
 H         4.151281        -2.463053         1.153253
 H         2.861277        -3.241513         0.061973
 H         4.438817        -2.741866        -0.596527
 H        -0.470524         0.756519        -0.367099
 H        -0.358130        -0.919476        -0.459491
 H        -0.364894        -0.219279         1.140782
 H         2.039122         1.939236        -1.048058
 H         1.802935         2.098483         0.785165
 H         4.606726         0.021563         1.335038
 H         2.170582        -0.814749         2.308300
