19
Iteration:  2918
 C         3.864776        -2.492473         0.077926
 C         3.036729        -1.261220         0.120630
 O         2.389374        -0.624865        -1.044332
 C         1.494198         0.209190        -0.100019
 C         0.045865         0.164938        -0.480138
 C         2.414562         1.555055         0.008774
 O         3.667993         1.232711         0.675426
 C         3.433810        -0.198068         1.105112
 C         2.124202        -0.516939         1.175648
 H         3.224646        -3.330718        -0.010511
 H         4.470173        -2.511125        -0.794104
 H         4.555926        -2.310826         0.892657
 H        -0.108590        -0.473886        -1.389152
 H        -0.571694        -0.368390         0.280422
 H        -0.374277         1.224323        -0.603008
 H         2.502498         2.105798        -0.894459
 H         1.959293         2.268528         0.751648
 H         4.116797        -0.412185         1.969273
 H         1.389401        -0.850225         1.919635
