19
Iteration:  1741charge 0 multiplicity 1
 C         3.919468        -2.516051        -0.149806
 C         3.128013        -1.200163         0.109932
 O         2.279636        -0.742318        -0.973082
 C         1.492850         0.199582         0.132420
 C         0.017580         0.084154        -0.065228
 C         2.279983         1.547078        -0.069206
 O         3.588444         1.340176         0.382254
 C         3.542643        -0.030219         0.984103
 C         2.222024        -0.568939         1.255405
 H         3.809743        -2.760156        -1.219777
 H         4.986445        -2.377300        -0.108139
 H         3.698328        -3.492605         0.340656
 H        -0.391231        -0.947006        -0.095906
 H        -0.210525         0.410329         1.025283
 H        -0.460245         0.843049        -0.720929
 H         2.336736         1.736974        -1.127287
 H         1.821876         2.399777         0.379234
 H         4.526573        -0.170228         1.523537
 H         1.805865        -0.797869         2.196442
