19
Iteration:  3500
 C         3.686216        -2.526049         0.073729
 C         3.071817        -1.194675         0.129302
 O         2.464354        -0.634834        -0.982591
 C         1.642897         0.301606        -0.039615
 C         0.170530         0.087800        -0.528647
 C         2.354240         1.609405         0.101570
 O         3.599288         1.159091         0.573024
 C         3.483497        -0.139034         1.075058
 C         2.005383        -0.514956         1.148422
 H         2.980890        -3.275678         0.006899
 H         4.337670        -2.621368        -0.831586
 H         4.197010        -2.517295         1.051348
 H        -0.161697         0.725713        -1.432444
 H         0.264301        -0.906197        -0.905276
 H        -0.595728         0.055243         0.289993
 H         2.506822         2.232200        -0.789815
 H         1.731294         2.132986         0.819037
 H         4.264184        -0.401878         1.837618
 H         1.534602        -0.705235         2.103760
