19
Iteration:  3568charge 0 multiplicity 1
 C         3.624330        -2.674643        -0.019320
 C         3.101235        -1.223569         0.188243
 O         2.488774        -0.631007        -0.972325
 C         1.579463         0.191910        -0.121896
 C         0.161252         0.210080        -0.510858
 C         2.280496         1.514684         0.009662
 O         3.562936         1.370431         0.661380
 C         3.548628        -0.023121         1.111239
 C         2.168096        -0.633653         1.235826
 H         3.095834        -3.217879        -0.851456
 H         4.653858        -2.612878        -0.461743
 H         3.615185        -3.175347         0.944528
 H         0.012639        -0.109009        -1.546774
 H        -0.362636        -0.596157         0.094711
 H        -0.346922         1.204300        -0.393975
 H         2.388360         2.033739        -1.005442
 H         1.740900         2.081833         0.732926
 H         4.310242        -0.227651         1.824834
 H         1.558361        -0.950965         2.043933
