19
Iteration:  2339
 C         3.966418        -2.360070        -0.156237
 C         3.092241        -1.164510         0.037817
 O         2.420558        -0.503263        -1.129863
 C         1.538055         0.256665        -0.036374
 C         0.135822         0.180845        -0.373777
 C         2.348628         1.506614         0.181269
 O         3.568365         1.135611         0.918889
 C         3.383817        -0.238195         1.058078
 C         2.003665        -0.726431         1.024374
 H         3.478349        -3.335917        -0.356424
 H         4.608696        -2.192280        -1.004105
 H         4.530596        -2.432529         0.757741
 H        -0.089532         0.657456        -1.382257
 H        -0.216221        -0.896732        -0.409637
 H        -0.568749         0.635775         0.372405
 H         2.410861         1.923999        -0.878693
 H         2.003305         2.334279         0.811356
 H         4.026667        -0.524080         1.986723
 H         1.417140        -1.151298         1.777278
