19
Iteration:  3171
 C         3.610327        -2.616098         0.052938
 C         3.194978        -1.196096         0.149333
 O         2.699267        -0.595565        -1.023436
 C         1.642602         0.208476        -0.153341
 C         0.151047         0.119480        -0.394018
 C         2.228347         1.626973         0.037795
 O         3.550408         1.242844         0.617940
 C         3.401622        -0.066427         1.161586
 C         2.071042        -0.554504         1.066227
 H         2.783368        -3.102606        -0.555310
 H         4.633701        -2.811412        -0.526287
 H         3.579590        -3.162434         1.011486
 H        -0.278738         0.224815        -1.363651
 H        -0.315007        -0.853895        -0.025795
 H        -0.282522         0.803542         0.288042
 H         2.331938         2.152923        -0.892611
 H         1.454761         1.932395         0.722007
 H         4.072223        -0.205934         2.053183
 H         1.492831        -0.992748         1.842152
