19
Iteration:   852charge 0 multiplicity 1
 C         3.962638        -2.360462        -0.053558
 C         3.024483        -1.190146         0.245243
 O         2.010613        -0.906829        -0.804801
 C         1.493154         0.180013         0.115330
 C         0.011199         0.053220         0.293364
 C         2.233451         1.506608        -0.287101
 O         3.746604         1.218355        -0.066881
 C         3.670646         0.038657         0.768589
 C         2.350993        -0.389753         1.390663
 H         4.250854        -2.878998         0.829213
 H         3.530071        -3.182830        -0.707657
 H         4.854769        -2.003629        -0.527903
 H        -0.552932         0.804538        -0.309872
 H        -0.164507        -0.991026         0.147954
 H        -0.510826         0.265721         1.286208
 H         2.113725         1.672814        -1.406946
 H         1.803889         2.390793         0.291107
 H         4.649764        -0.034442         1.318501
 H         1.992581        -0.498197         2.454771
