19
Iteration:  3900
 C         3.519816        -2.637703         0.127810
 C         3.083571        -1.262614         0.299017
 O         2.502350        -0.700154        -0.979777
 C         1.532724         0.167070        -0.115317
 C         0.138811         0.121434        -0.517308
 C         2.317172         1.573032         0.027246
 O         3.652131         1.325730         0.486179
 C         3.571557         0.038841         1.049514
 C         2.203793        -0.526589         1.197646
 H         2.730752        -3.263206        -0.355872
 H         4.321077        -2.741008        -0.473591
 H         3.733615        -2.980839         1.188449
 H        -0.054530        -0.792060        -1.207227
 H        -0.576678         0.048975         0.297607
 H         0.088012         1.067120        -1.086694
 H         2.361479         2.017025        -0.983085
 H         1.692650         2.256378         0.674249
 H         4.235740        -0.085346         1.962232
 H         1.646968        -0.621944         2.170996
