19
Iteration:  4816charge 0 multiplicity 1
 C         3.561469        -2.498515        -0.236484
 C         3.092225        -1.174362         0.102621
 O         2.517531        -0.447600        -0.947415
 C         1.619794         0.179061         0.068951
 C         0.273218        -0.067811        -0.589932
 C         2.258915         1.580877         0.138209
 O         3.544605         1.327160         0.764766
 C         3.500520        -0.153205         1.177153
 C         2.162800        -0.696971         1.162162
 H         2.649729        -3.143907        -0.517693
 H         4.021828        -2.332933        -1.204045
 H         4.348704        -2.922341         0.314057
 H         0.362491        -0.182136        -1.638949
 H        -0.535207        -0.636254         0.059497
 H        -0.233225         0.861495        -0.640627
 H         2.474907         2.018654        -0.871120
 H         1.610873         2.419186         0.563842
 H         4.003193        -0.496424         2.054773
 H         1.732163        -1.084598         2.062005
