19
Iteration:  1288
 C         3.715107        -2.564148         0.320586
 C         3.200659        -1.227175         0.136648
 O         2.294533        -0.731358        -0.951939
 C         1.604002         0.181071         0.138769
 C         0.022369        -0.040375         0.340444
 C         2.088374         1.608996        -0.187150
 O         3.536049         1.239414        -0.156322
 C         3.716610         0.107239         0.720119
 C         2.414571        -0.410876         1.179899
 H         3.621030        -3.001261         1.316581
 H         2.919214        -3.255789        -0.268519
 H         4.737769        -2.703702        -0.077233
 H        -0.543214         0.852637        -0.084209
 H        -0.340657        -0.919457        -0.321723
 H        -0.144035        -0.318150         1.420240
 H         1.762643         1.883263        -1.237008
 H         1.757810         2.280383         0.606010
 H         4.589994         0.242050         1.315682
 H         2.262021        -0.449356         2.354225
