19
Iteration:   159charge 0 multiplicity 1
 C         3.479099        -2.757639         0.126114
 C         3.169512        -1.185895         0.071668
 O         2.335170        -0.587635        -0.929859
 C         1.601826         0.141454         0.071814
 C         0.166782        -0.209217         0.188978
 C         2.101712         1.593881        -0.039094
 O         3.511953         1.395186         0.042207
 C         3.748527         0.128798         0.754547
 C         2.468490        -0.358199         1.205560
 H         4.053151        -2.863342         1.026116
 H         2.526876        -3.332168         0.150916
 H         4.040094        -3.210507        -0.778217
 H        -0.348935        -0.303761        -0.845086
 H         0.041510        -1.218682         0.684538
 H        -0.268992         0.500397         0.963201
 H         1.923583         2.129491        -1.010958
 H         1.874032         2.218144         0.849227
 H         4.499989         0.113317         1.492972
 H         2.325442        -0.582982         2.203658
