19
Iteration:  3144charge 0 multiplicity 1
 C         3.692130        -2.590153         0.149059
 C         3.087128        -1.227806         0.160469
 O         2.603706        -0.475251        -1.053438
 C         1.591689         0.194840        -0.118556
 C         0.136177         0.124709        -0.444935
 C         2.298968         1.565950         0.040328
 O         3.578146         1.222109         0.620249
 C         3.483459        -0.070040         1.155529
 C         2.052242        -0.619968         1.004334
 H         2.896173        -3.290168        -0.068881
 H         4.452821        -2.633823        -0.529565
 H         4.020148        -2.987914         1.110530
 H        -0.346415         0.847909        -1.155528
 H        -0.276677        -0.819399        -0.635145
 H        -0.327224         0.371656         0.568229
 H         2.456451         1.851889        -1.028886
 H         1.631560         2.131981         0.692273
 H         4.106211        -0.140024         2.020241
 H         1.437234        -1.208935         1.713185
