19
Iteration:  4018charge 0 multiplicity 1
 C         3.742393        -2.599040         0.010079
 C         3.090661        -1.269153         0.283017
 O         2.451846        -0.667838        -0.864062
 C         1.572401         0.213061        -0.044174
 C         0.133981         0.270091        -0.615867
 C         2.312273         1.568198        -0.105233
 O         3.566971         1.189906         0.551473
 C         3.532646        -0.062941         1.176260
 C         2.088829        -0.567537         1.215891
 H         2.951866        -3.404835        -0.095476
 H         3.973841        -2.660511        -1.030411
 H         4.600456        -2.788758         0.723269
 H        -0.532911        -0.398700         0.044702
 H        -0.368255         1.188209        -0.540109
 H         0.168432        -0.055335        -1.641532
 H         2.525561         1.928978        -1.158104
 H         1.820132         2.344862         0.478212
 H         4.263467         0.071042         2.034273
 H         1.669938        -0.620680         2.270168
