19
Iteration:  3349
 C         3.605652        -2.684013        -0.086883
 C         3.135650        -1.235965         0.259143
 O         2.551922        -0.565836        -0.903914
 C         1.586058         0.192018        -0.108387
 C         0.187456         0.125537        -0.590360
 C         2.208512         1.541948         0.046796
 O         3.557640         1.290413         0.576521
 C         3.593558        -0.043164         1.144865
 C         2.114645        -0.524823         1.231105
 H         2.796337        -3.175326        -0.641139
 H         4.591766        -2.530970        -0.652400
 H         3.768900        -3.360464         0.820440
 H         0.086960         0.267597        -1.689457
 H        -0.091782        -0.835418        -0.274117
 H        -0.475978         0.869126        -0.114873
 H         2.122718         2.063058        -0.972102
 H         1.784729         2.236896         0.837836
 H         4.012425        -0.204233         2.134669
 H         1.532379        -0.782004         2.153462
