19
Iteration:  3988
 C         3.726496        -2.473030         0.024282
 C         3.043097        -1.200280         0.267733
 O         2.375879        -0.755677        -0.918169
 C         1.590593         0.134804        -0.058466
 C         0.188691         0.268376        -0.537160
 C         2.343619         1.436268        -0.117816
 O         3.673195         1.245822         0.555880
 C         3.480380        -0.022546         1.161166
 C         2.036618        -0.551624         1.219969
 H         2.918513        -3.197943        -0.319379
 H         4.434638        -2.355293        -0.772868
 H         4.258164        -2.884847         0.948948
 H        -0.208062        -0.771482        -0.568375
 H        -0.402106         0.946669         0.104043
 H         0.123842         0.631932        -1.592422
 H         2.612886         1.775491        -1.113609
 H         1.867391         2.207628         0.529743
 H         4.171444        -0.018753         1.978517
 H         1.574478        -0.690558         2.205829
