19
Iteration:  1127
 C         3.480802        -2.556826         0.125136
 C         3.180101        -1.152303         0.098454
 O         2.138523        -0.814991        -0.774834
 C         1.555826         0.107383         0.220609
 C         0.098871        -0.100889         0.075649
 C         2.133535         1.441322        -0.116441
 O         3.513571         1.387184        -0.059299
 C         3.919453         0.205319         0.740032
 C         2.611015        -0.348768         1.286329
 H         4.382068        -2.714799         0.689154
 H         2.664881        -3.134902         0.630486
 H         3.693466        -2.890555        -0.869669
 H         0.052301        -0.481655        -0.952668
 H        -0.391997        -0.853729         0.730010
 H        -0.517679         0.778332         0.117682
 H         1.900214         1.603854        -1.195758
 H         1.654389         2.254139         0.549268
 H         4.851320         0.344657         1.183003
 H         2.570155        -0.603858         2.407364
