19
Iteration:   368
 C         3.645086        -2.557376         0.170052
 C         3.079583        -1.141901         0.095370
 O         2.231487        -0.662826        -0.933800
 C         1.567121         0.196805         0.073780
 C         0.109768        -0.174746         0.223403
 C         2.205614         1.568767        -0.075048
 O         3.560052         1.310934         0.024777
 C         3.704740         0.079382         0.716819
 C         2.431116        -0.425069         1.216008
 H         4.514564        -2.528164         0.817540
 H         2.845564        -3.186922         0.468518
 H         3.934935        -3.111942        -0.784769
 H        -0.486369        -0.183036        -0.716969
 H         0.131137        -1.184228         0.656562
 H        -0.247087         0.409012         1.089367
 H         1.992766         2.037508        -1.057547
 H         2.027156         2.285105         0.775445
 H         4.648263         0.096834         1.199743
 H         2.103774        -0.949335         2.141557
