19
Iteration:  1140charge 0 multiplicity 1
 C         3.649014        -2.548473         0.184802
 C         3.161930        -1.101964         0.164545
 O         2.081058        -0.819441        -0.838198
 C         1.576079         0.086759         0.191229
 C         0.044304        -0.062537         0.079190
 C         2.117694         1.512307        -0.186489
 O         3.581938         1.365687         0.021990
 C         3.773472         0.148209         0.597479
 C         2.622355        -0.393154         1.349172
 H         4.675011        -2.673958         0.637330
 H         2.954618        -3.118383         0.753927
 H         3.594321        -3.001680        -0.791792
 H        -0.220775        -0.456887        -0.928637
 H        -0.362882        -0.774457         0.844578
 H        -0.355897         0.947150         0.299874
 H         1.884308         1.844350        -1.189486
 H         1.834425         2.322740         0.516730
 H         4.751161        -0.018071         1.093072
 H         2.345946        -0.904501         2.362652
