19
Iteration:  2780
 C         3.586536        -2.621646        -0.023146
 C         3.163429        -1.203021         0.151677
 O         2.571688        -0.505757        -1.092342
 C         1.601772         0.149577        -0.105259
 C         0.192886         0.083207        -0.431443
 C         2.195367         1.514960         0.166297
 O         3.555415         1.315858         0.652409
 C         3.473316        -0.054153         1.166985
 C         2.179360        -0.573182         1.070289
 H         2.698140        -3.215276        -0.323020
 H         4.311715        -2.807059        -0.932681
 H         4.147995        -3.101721         0.825439
 H        -0.424917        -0.376050         0.332633
 H        -0.246325         1.089735        -0.660024
 H         0.167591        -0.614519        -1.201935
 H         2.117663         2.240028        -0.712947
 H         1.660440         2.045519         0.938524
 H         4.240885        -0.192034         1.958613
 H         1.639938        -0.974721         1.982974
