19
Iteration:  3108
 C         3.802763        -2.533392         0.064566
 C         3.050797        -1.240946         0.179106
 O         2.268598        -0.746437        -0.940322
 C         1.573337         0.215200        -0.069479
 C         0.174554         0.218117        -0.706223
 C         2.298297         1.479300         0.082596
 O         3.635354         1.326557         0.731249
 C         3.502958        -0.068058         1.071438
 C         2.152591        -0.580692         1.190347
 H         3.198870        -3.316982        -0.259466
 H         4.407963        -2.352323        -0.880964
 H         4.497483        -2.755538         0.886447
 H         0.085044         1.266793        -1.182402
 H         0.111500        -0.598903        -1.504133
 H        -0.598240         0.159298         0.117898
 H         2.654763         2.010754        -0.863951
 H         1.758327         2.300049         0.544440
 H         4.233652        -0.268399         1.915226
 H         1.567994        -1.009450         1.951170
