19
Iteration:  1696charge 0 multiplicity 1
 C         3.681875        -2.589201        -0.049310
 C         3.205409        -1.134475         0.102355
 O         2.291219        -0.703976        -0.960762
 C         1.575243         0.087399         0.084442
 C         0.008662         0.024355        -0.126144
 C         2.152985         1.540718         0.130411
 O         3.546106         1.375248         0.302136
 C         3.717178         0.118445         0.815639
 C         2.428653        -0.573638         1.278688
 H         4.498080        -3.018204        -0.720819
 H         3.819249        -2.959779         0.934240
 H         2.748199        -3.119504        -0.445202
 H        -0.132038        -0.698667        -0.968545
 H        -0.785309        -0.322013         0.624342
 H        -0.328209         1.050166        -0.510375
 H         1.988997         2.125143        -0.762312
 H         1.932179         2.230205         0.928807
 H         4.517954        -0.015365         1.495774
 H         2.157372        -1.093794         2.235093
