19
Iteration:  4819
 C         3.554055        -2.524052        -0.250134
 C         3.104670        -1.161707         0.080958
 O         2.535796        -0.427380        -0.943727
 C         1.614672         0.202794         0.065804
 C         0.244313        -0.079312        -0.598076
 C         2.269146         1.585678         0.142212
 O         3.518926         1.305839         0.751181
 C         3.515564        -0.145547         1.175113
 C         2.147208        -0.707477         1.181196
 H         2.666657        -3.155809        -0.397587
 H         4.042664        -2.362494        -1.185193
 H         4.369411        -2.922913         0.360330
 H         0.366707        -0.323021        -1.652233
 H        -0.446003        -0.561844         0.037378
 H        -0.253150         0.878004        -0.623312
 H         2.554096         2.067430        -0.798475
 H         1.669578         2.409053         0.615596
 H         4.060578        -0.426820         2.136043
 H         1.752757        -1.098900         2.151431
