19
Iteration:  2477
 C         3.929833        -2.358451        -0.103750
 C         3.086537        -1.196057         0.049296
 O         2.527073        -0.539422        -1.086359
 C         1.557784         0.243121        -0.175146
 C         0.075537         0.166636        -0.326064
 C         2.270280         1.522730         0.158464
 O         3.606012         1.186609         0.787042
 C         3.378007        -0.173967         1.116194
 C         2.013482        -0.760687         1.076781
 H         3.425231        -3.127058        -0.880744
 H         4.949447        -2.203155        -0.508561
 H         3.947020        -2.976767         0.838978
 H        -0.316436         0.157331         0.725969
 H        -0.263207         1.171032        -0.749808
 H        -0.200856        -0.663810        -0.991855
 H         2.473783         2.137869        -0.697984
 H         1.720960         2.220768         0.894467
 H         4.077191        -0.588250         1.932809
 H         1.372709        -1.206688         1.791009
