19
Iteration:  1470charge 0 multiplicity 1
 C         3.564335        -2.639716         0.101887
 C         3.248649        -1.141779         0.103015
 O         2.236174        -0.810853        -0.856036
 C         1.586436         0.133658         0.150498
 C         0.080044        -0.015197         0.124978
 C         2.052855         1.516257        -0.122801
 O         3.540851         1.411274         0.104252
 C         3.787392         0.140241         0.677386
 C         2.555471        -0.450027         1.284220
 H         4.231442        -2.766768        -0.794681
 H         4.144048        -3.022850         1.003535
 H         2.682506        -3.331851        -0.087156
 H        -0.362241        -0.431291         1.033232
 H        -0.462321         0.921296        -0.057477
 H        -0.234342        -0.637411        -0.719353
 H         1.955544         1.758402        -1.192750
 H         1.700728         2.332463         0.497080
 H         4.590034         0.176817         1.410335
 H         1.874955        -0.528120         2.206715
