19
Iteration:  2682
 C         3.986059        -2.389870        -0.188376
 C         3.082150        -1.176095         0.226318
 O         2.481755        -0.540245        -0.936826
 C         1.613334         0.207772        -0.086456
 C         0.025129         0.220928        -0.454050
 C         2.324180         1.481876         0.110405
 O         3.616597         1.081078         0.592471
 C         3.382057        -0.152341         1.235253
 C         1.931842        -0.656103         1.100389
 H         3.570391        -3.039077        -0.924198
 H         4.979655        -2.085443        -0.633261
 H         4.351372        -2.985692         0.674829
 H        -0.249722         1.224127        -0.811401
 H        -0.395077        -0.491009        -1.209231
 H        -0.542122         0.105204         0.436918
 H         2.416879         1.924274        -0.973215
 H         1.752464         2.175200         0.775347
 H         4.042318        -0.400373         2.018832
 H         1.414302        -0.924042         1.954454
