19
Iteration:  3714charge 0 multiplicity 1
 C         3.524967        -2.551852         0.053727
 C         3.099399        -1.153024         0.185389
 O         2.491594        -0.548337        -1.022417
 C         1.609375         0.191904        -0.089383
 C         0.117492        -0.010264        -0.437761
 C         2.357458         1.552996         0.022313
 O         3.668274         1.234691         0.544126
 C         3.529426        -0.048527         1.224521
 C         2.101362        -0.515599         1.129123
 H         2.754384        -3.147967        -0.592368
 H         4.379348        -2.650713        -0.566817
 H         3.669667        -3.069944         1.049673
 H        -0.511715         0.902834        -0.655298
 H         0.159383        -0.529523        -1.370909
 H        -0.376444        -0.682463         0.258458
 H         2.569198         2.063785        -0.919090
 H         1.814229         2.263721         0.695436
 H         4.326222         0.006724         1.936930
 H         1.642530        -1.122711         1.877829
