19
Iteration:  4351charge 0 multiplicity 1
 C         3.841164        -2.538136         0.213799
 C         3.019458        -1.257864         0.170382
 O         2.413061        -0.738861        -1.025135
 C         1.630839         0.163197        -0.124193
 C         0.078375         0.385226        -0.437281
 C         2.356722         1.503001         0.008988
 O         3.622571         1.271205         0.552015
 C         3.458631        -0.030765         1.027059
 C         2.076025        -0.683600         1.135587
 H         3.423542        -3.394702        -0.342397
 H         4.922128        -2.284031        -0.078287
 H         3.942779        -2.857637         1.245503
 H        -0.534454         0.170662         0.448308
 H        -0.289715         1.471013        -0.559995
 H        -0.170076        -0.254060        -1.283682
 H         2.372469         1.826802        -1.041138
 H         1.685185         2.259214         0.492843
 H         4.060810        -0.193607         1.912642
 H         1.535587        -1.164052         1.953186
