19
Iteration:   549charge 0 multiplicity 1
 C         3.401702        -2.638218         0.154756
 C         3.199521        -1.225941         0.139611
 O         2.237918        -0.765325        -0.859197
 C         1.577544         0.154565         0.197651
 C         0.159823        -0.181305         0.062836
 C         2.098046         1.600024        -0.001688
 O         3.459305         1.415345        -0.006542
 C         3.861660         0.172552         0.592392
 C         2.649467        -0.390306         1.247466
 H         4.293237        -2.853646         0.718019
 H         2.550613        -3.302640         0.492864
 H         3.610326        -2.937699        -0.838719
 H        -0.115649        -0.198714        -0.998388
 H        -0.002337        -1.065343         0.658126
 H        -0.441882         0.592507         0.553204
 H         1.772415         2.222331        -0.830528
 H         1.743596         2.174384         0.955900
 H         4.752797         0.344383         1.208989
 H         2.359082        -0.671760         2.308955
