19
Iteration:  4815
 C         3.561388        -2.491352        -0.235104
 C         3.089849        -1.177990         0.111685
 O         2.512313        -0.454466        -0.948886
 C         1.619290         0.172162         0.065694
 C         0.279877        -0.063164        -0.582425
 C         2.255012         1.580895         0.137106
 O         3.552577         1.331811         0.770258
 C         3.497168        -0.153559         1.177036
 C         2.165758        -0.692392         1.156709
 H         2.667724        -3.134670        -0.541703
 H         4.025014        -2.324702        -1.232338
 H         4.354507        -2.938933         0.326877
 H         0.364695        -0.165678        -1.656368
 H        -0.535273        -0.661928         0.040836
 H        -0.245029         0.895784        -0.641467
 H         2.445953         1.988573        -0.894439
 H         1.604079         2.404287         0.560607
 H         4.003346        -0.507966         2.027793
 H         1.713877        -1.084716         2.032562
