19
Iteration:  1114
 C         3.468767        -2.674997         0.084737
 C         3.260584        -1.127818         0.227616
 O         2.250111        -0.777542        -0.744842
 C         1.628509         0.121422         0.226514
 C         0.033915        -0.124903         0.107630
 C         2.041089         1.510881        -0.155483
 O         3.585235         1.378692        -0.104398
 C         3.805598         0.260592         0.658665
 C         2.592481        -0.384649         1.307523
 H         4.130312        -3.079241         0.800743
 H         2.413496        -3.152171         0.170769
 H         3.765578        -2.953865        -0.939529
 H        -0.155134        -0.452046        -0.916694
 H        -0.161541        -0.936657         0.797728
 H        -0.585258         0.738641         0.288127
 H         1.692870         1.846244        -1.183725
 H         1.673914         2.288575         0.624843
 H         4.675908         0.239038         1.254258
 H         2.271579        -0.521398         2.305271
