19
Iteration:  1203
 C         3.921492        -2.341554         0.016813
 C         3.057634        -1.223933         0.258253
 O         2.194807        -0.929628        -0.800722
 C         1.560838         0.106892         0.174622
 C        -0.022558         0.195347         0.263074
 C         2.216245         1.389285        -0.347847
 O         3.599223         1.197591        -0.041029
 C         3.687259         0.125228         0.778041
 C         2.331915        -0.404234         1.284528
 H         4.899158        -2.192551         0.483190
 H         3.448332        -3.327900         0.374721
 H         4.073076        -2.363507        -1.061177
 H        -0.436914         0.989025        -0.333177
 H        -0.517995        -0.794058         0.217524
 H        -0.319891         0.610609         1.199072
 H         2.049634         1.337468        -1.449685
 H         1.787610         2.344665         0.084110
 H         4.368676         0.277330         1.588814
 H         1.956750        -0.750832         2.333622
