19
Iteration:  3968
 C         3.775753        -2.557718         0.188956
 C         3.028626        -1.197482         0.196408
 O         2.343026        -0.738503        -0.983592
 C         1.630252         0.217381        -0.128641
 C         0.151659         0.220124        -0.454879
 C         2.377812         1.604122        -0.089339
 O         3.613778         1.195495         0.548361
 C         3.508892        -0.091204         1.119550
 C         2.063765        -0.502311         1.172422
 H         3.240180        -3.262914        -0.411458
 H         4.700471        -2.569637        -0.404282
 H         3.949753        -2.786454         1.239983
 H        -0.101223        -0.757155        -0.825971
 H        -0.533421         0.377842         0.427588
 H        -0.137848         0.978295        -1.248722
 H         2.667513         1.891313        -1.098916
 H         1.828429         2.376535         0.535053
 H         4.221902        -0.320181         1.878053
 H         1.463566        -0.961412         1.933458
