19
Iteration:  4726charge 0 multiplicity 1
 C         3.966206        -2.515933         0.018525
 C         3.127401        -1.195193         0.059282
 O         2.403518        -0.577507        -1.044050
 C         1.518323         0.206054        -0.071585
 C        -0.016685         0.304027        -0.446210
 C         2.293185         1.507495         0.166565
 O         3.659653         1.196541         0.692223
 C         3.510167        -0.170188         1.073362
 C         2.010015        -0.691103         1.033678
 H         3.527850        -3.289053        -0.556413
 H         5.002895        -2.239128        -0.286730
 H         4.127873        -2.848993         1.066224
 H        -0.196260         1.347211        -0.301836
 H        -0.240655        -0.084729        -1.395617
 H        -0.612931        -0.339662         0.221699
 H         2.421841         2.149185        -0.714326
 H         1.706864         2.156492         0.900077
 H         4.073792        -0.441624         1.993966
 H         1.326673        -1.063381         1.809825
