19
Iteration:  2478charge 0 multiplicity 1
 C         3.933865        -2.360060        -0.100593
 C         3.098552        -1.194655         0.053966
 O         2.522560        -0.539394        -1.089499
 C         1.558763         0.238846        -0.168544
 C         0.072660         0.171616        -0.328553
 C         2.270444         1.514735         0.147178
 O         3.599607         1.180143         0.789343
 C         3.375561        -0.173487         1.118078
 C         2.011041        -0.753892         1.074222
 H         3.434325        -3.151567        -0.884739
 H         4.947040        -2.170584        -0.510829
 H         3.970647        -3.008377         0.823986
 H        -0.304044         0.174742         0.720453
 H        -0.241427         1.192366        -0.712381
 H        -0.228453        -0.597487        -0.998373
 H         2.457318         2.143611        -0.695128
 H         1.736176         2.213077         0.922979
 H         4.074589        -0.544874         1.917553
 H         1.400655        -1.224786         1.784329
