19
Iteration:   351charge 0 multiplicity 1
 C         3.449696        -2.608236         0.176066
 C         3.103097        -1.161396         0.149016
 O         2.393050        -0.647057        -1.022598
 C         1.599370         0.196507         0.194303
 C         0.151089        -0.236094         0.260853
 C         2.047306         1.634432        -0.048093
 O         3.563440         1.333311        -0.054461
 C         3.799820         0.093740         0.714882
 C         2.448227        -0.422864         1.188826
 H         4.329108        -2.782645         0.900482
 H         2.630812        -3.365236         0.541427
 H         3.875922        -2.898617        -0.734378
 H        -0.296978         0.172193        -0.641662
 H         0.033462        -1.330191         0.096986
 H        -0.251203         0.094484         1.251363
 H         1.806153         1.998786        -1.038427
 H         1.566658         2.240422         0.741182
 H         4.721118         0.072049         1.339857
 H         2.152296        -0.528834         2.232389
