19
Iteration:  4323
 C         3.774126        -2.585977         0.258622
 C         3.128415        -1.195745         0.132556
 O         2.376213        -0.630260        -0.993259
 C         1.625025         0.198839        -0.081575
 C         0.082288         0.299533        -0.495818
 C         2.298958         1.455170         0.004787
 O         3.566218         1.217375         0.585044
 C         3.549795        -0.094770         0.990151
 C         2.142574        -0.540416         1.144853
 H         3.119263        -3.302290        -0.268269
 H         4.679243        -2.816234        -0.306168
 H         3.908370        -2.689453         1.388277
 H        -0.635174        -0.033503         0.338634
 H        -0.337765         1.223594        -0.789133
 H         0.054854        -0.282197        -1.430663
 H         2.447226         1.897336        -1.008048
 H         1.655666         2.104213         0.608219
 H         4.310496        -0.263384         1.796551
 H         1.557632        -1.075129         1.873081
