19
Iteration:   942
 C         3.597456        -2.529526         0.139812
 C         3.102205        -1.131752         0.118779
 O         2.164972        -0.692836        -0.877379
 C         1.508146         0.200460         0.092795
 C         0.110178        -0.276955         0.249829
 C         2.238546         1.572457        -0.100390
 O         3.655093         1.306041        -0.050888
 C         3.721429         0.126945         0.721753
 C         2.401589        -0.406280         1.234174
 H         4.540856        -2.513244         0.594071
 H         2.946312        -3.149227         0.827295
 H         3.876619        -2.861476        -0.827619
 H        -0.160549        -0.561420        -0.799890
 H         0.032488        -1.100645         0.982955
 H        -0.449793         0.603638         0.533386
 H         2.150691         2.085729        -1.062610
 H         2.057370         2.274312         0.713151
 H         4.720831        -0.089653         1.262218
 H         2.053499        -0.562208         2.238607
