19
Iteration:    89charge 0 multiplicity 1
 C         3.915342        -2.572936        -0.035941
 C         3.112772        -1.283688         0.206266
 O         2.185034        -0.879484        -0.770924
 C         1.513544         0.171757         0.176158
 C        -0.023129         0.200287         0.084287
 C         2.163592         1.489940        -0.212228
 O         3.553897         1.423953         0.142801
 C         3.718828         0.065167         0.707845
 C         2.407583        -0.496405         1.297672
 H         4.649080        -2.778223         0.791707
 H         3.266931        -3.423095        -0.300332
 H         4.475377        -2.408555        -0.925577
 H        -0.362967         1.136633        -0.305766
 H        -0.466471        -0.494521        -0.626507
 H        -0.486228        -0.122369         1.010912
 H         2.033780         1.521933        -1.294535
 H         1.653913         2.317688         0.298118
 H         4.602569         0.057801         1.449951
 H         2.153262        -0.814110         2.372077
