19
Iteration:  2459charge 0 multiplicity 1
 C         3.779658        -2.461252        -0.150141
 C         3.071564        -1.189587         0.037232
 O         2.472451        -0.445365        -1.085057
 C         1.636526         0.243277        -0.043274
 C         0.115479         0.023296        -0.415364
 C         2.333426         1.599174         0.208207
 O         3.542828         1.200927         0.786111
 C         3.484437        -0.202480         1.169102
 C         2.044878        -0.654644         1.016879
 H         3.404433        -3.256681        -0.792784
 H         4.753577        -2.110309        -0.481669
 H         3.933041        -2.976275         0.798683
 H        -0.476337         0.276560         0.470561
 H        -0.355430         0.448795        -1.292545
 H         0.067907        -1.032153        -0.570117
 H         2.475482         2.187139        -0.712925
 H         1.776448         2.188640         0.970783
 H         4.222998        -0.374559         1.881968
 H         1.412556        -1.130823         1.756303
