19
Iteration:  4313charge 0 multiplicity 1
 C         3.676588        -2.586618         0.166407
 C         3.127466        -1.239923         0.182475
 O         2.429666        -0.654743        -1.011840
 C         1.525477         0.152424        -0.108416
 C         0.051228         0.232608        -0.543354
 C         2.313614         1.540281         0.033119
 O         3.669802         1.292245         0.580623
 C         3.566667        -0.036828         1.040521
 C         2.112957        -0.589079         1.166257
 H         2.956171        -3.428458         0.017359
 H         4.603530        -2.532096        -0.343757
 H         3.977958        -2.792040         1.249978
 H        -0.503096        -0.284594         0.283703
 H        -0.229983         1.231468        -0.769256
 H        -0.217379        -0.476144        -1.340718
 H         2.506153         1.950811        -0.971618
 H         1.866711         2.253113         0.681937
 H         4.310353        -0.181774         1.870433
 H         1.703818        -1.017272         2.086949
