19
Iteration:  3411charge 0 multiplicity 1
 C         3.812206        -2.546965         0.119861
 C         3.046891        -1.279762         0.127541
 O         2.386680        -0.713291        -1.098422
 C         1.565912         0.201904        -0.102968
 C         0.124320         0.230319        -0.527081
 C         2.323609         1.649977         0.058601
 O         3.583935         1.284705         0.754771
 C         3.519065        -0.172249         1.031266
 C         2.101318        -0.592851         1.157149
 H         3.331188        -3.329805        -0.331421
 H         4.746645        -2.463526        -0.455232
 H         4.169091        -2.787753         1.137466
 H        -0.020179         0.397593        -1.646341
 H        -0.319878        -0.772818        -0.308794
 H        -0.385340         0.927084         0.138897
 H         2.545120         2.218846        -0.807417
 H         1.785659         2.355962         0.689504
 H         4.316761        -0.201271         1.752321
 H         1.428640        -0.780872         2.071643
