19
Iteration:  2230
 C         3.703056        -2.529454        -0.209705
 C         3.198502        -1.185282        -0.028570
 O         2.600447        -0.357883        -1.048447
 C         1.587564         0.233557        -0.124800
 C         0.140739         0.039560        -0.433161
 C         2.185844         1.533626         0.430878
 O         3.542685         1.220319         0.701239
 C         3.447811        -0.142392         1.172991
 C         2.061945        -0.669736         1.050828
 H         3.947534        -2.712462        -1.246784
 H         4.583621        -2.696076         0.371902
 H         3.028605        -3.336471         0.025709
 H        -0.097638         0.344859        -1.494624
 H         0.200558        -1.075978        -0.477637
 H        -0.542149         0.410207         0.330865
 H         2.197753         2.301689        -0.396540
 H         1.709178         1.799206         1.369775
 H         4.212403        -0.383834         1.997927
 H         1.619642        -1.198949         1.886893
