19
Iteration:   492charge 0 multiplicity 1
 C         3.813635        -2.539076         0.087602
 C         3.086432        -1.200777         0.119508
 O         2.131074        -0.725257        -0.892181
 C         1.564382         0.183522         0.158434
 C         0.084000        -0.027913         0.272343
 C         2.144520         1.515856        -0.223618
 O         3.631451         1.313897         0.009566
 C         3.680205         0.022938         0.718407
 C         2.380948        -0.405177         1.287125
 H         4.259497        -2.722282         1.112270
 H         3.080937        -3.343970        -0.001870
 H         4.622883        -2.624574        -0.627776
 H        -0.533625         0.476395        -0.478080
 H        -0.077964        -1.105253         0.168453
 H        -0.175725         0.300224         1.295662
 H         2.067066         1.891493        -1.268058
 H         1.862956         2.335820         0.475195
 H         4.695829        -0.103299         1.237969
 H         1.991211        -0.517609         2.263469
