19
Iteration:  2092
 C         3.869073        -2.495486        -0.125611
 C         3.155316        -1.181856         0.029890
 O         2.429943        -0.531552        -0.956373
 C         1.536346         0.143731        -0.044284
 C         0.068512         0.174141        -0.380403
 C         2.239360         1.532729         0.207582
 O         3.562819         1.194942         0.578541
 C         3.503411        -0.135458         1.074422
 C         2.135003        -0.624037         1.179800
 H         4.019232        -3.073930         0.783169
 H         3.369816        -3.018704        -1.001165
 H         4.869590        -2.277523        -0.605493
 H        -0.582892        -0.115357         0.460891
 H        -0.275638         1.185220        -0.627349
 H        -0.185397        -0.472835        -1.229268
 H         2.264018         2.095366        -0.710854
 H         1.736891         2.047064         1.025297
 H         4.340147        -0.339855         1.806795
 H         1.527150        -1.013087         1.963320
