19
Iteration:  1629charge 0 multiplicity 1
 C         3.803328        -2.510890        -0.124053
 C         3.182175        -1.212619         0.162629
 O         2.169851        -0.689024        -0.967777
 C         1.520772         0.153345         0.100945
 C         0.021703        -0.041447         0.031829
 C         2.274174         1.522927        -0.109645
 O         3.618984         1.320855         0.346267
 C         3.647004         0.072395         0.886378
 C         2.344378        -0.473948         1.241207
 H         4.392060        -2.898703         0.774623
 H         2.896261        -3.105993        -0.239554
 H         4.453481        -2.423330        -1.019384
 H        -0.297699        -0.344353        -1.009655
 H        -0.239512        -0.902182         0.723542
 H        -0.558530         0.901992         0.355705
 H         2.063736         1.888555        -1.124607
 H         1.890603         2.269582         0.594908
 H         4.486019        -0.102038         1.558034
 H         1.819394        -0.910159         2.165818
