19
Iteration:  2300charge 0 multiplicity 1
 C         3.955013        -2.417771        -0.377128
 C         3.189411        -1.156185         0.098967
 O         2.455800        -0.644240        -1.028296
 C         1.562956         0.133593        -0.033484
 C         0.143019         0.378856        -0.435292
 C         2.243873         1.478856         0.131807
 O         3.460085         1.226166         0.901792
 C         3.444418        -0.166715         1.182062
 C         2.024672        -0.771693         1.122313
 H         3.449273        -2.787034        -1.300255
 H         4.976853        -1.959969        -0.531269
 H         4.208437        -3.272704         0.301694
 H        -0.010336         0.303202        -1.483213
 H        -0.437709        -0.354432         0.078852
 H        -0.174668         1.368052        -0.060531
 H         2.611212         1.730634        -0.848121
 H         1.565594         2.164555         0.699230
 H         3.959742        -0.473899         2.027474
 H         1.483428        -1.185609         1.996716
