19
Iteration:  1925
 C         3.888917        -2.472984        -0.152036
 C         3.123814        -1.197624         0.150060
 O         2.286588        -0.715925        -0.931808
 C         1.505733         0.100571         0.012384
 C         0.010339         0.182769        -0.253833
 C         2.237351         1.517060        -0.046449
 O         3.600949         1.341466         0.599189
 C         3.645441        -0.010491         1.007537
 C         2.186938        -0.682886         1.192568
 H         4.925549        -2.394429        -0.561376
 H         3.777577        -3.216418         0.622120
 H         3.314817        -2.714280        -1.083267
 H        -0.444043        -0.510197        -0.939033
 H        -0.379794        -0.046894         0.760673
 H        -0.237665         1.219040        -0.496927
 H         2.400042         1.694960        -1.127363
 H         1.902692         2.403458         0.528815
 H         4.554599        -0.187672         1.612736
 H         1.848952        -0.900342         2.202640
