19
Iteration:  4236charge 0 multiplicity 1
 C         3.587300        -2.574689         0.117877
 C         3.123217        -1.173962         0.177139
 O         2.390012        -0.610781        -0.982857
 C         1.630043         0.223572        -0.077263
 C         0.189066         0.067995        -0.531845
 C         2.304210         1.541306         0.026089
 O         3.629709         1.267246         0.587229
 C         3.547122        -0.042475         1.132443
 C         2.141060        -0.594915         1.107558
 H         2.629182        -3.116195         0.290125
 H         3.976176        -2.685937        -0.872641
 H         4.372299        -2.999513         0.821276
 H        -0.498718         0.522497         0.304558
 H        -0.082116         0.678652        -1.359118
 H         0.003680        -1.012231        -0.725325
 H         2.464279         1.981342        -0.981653
 H         1.730362         2.308631         0.523969
 H         4.236958        -0.141628         1.977821
 H         1.644177        -0.803388         2.042467
