19
Iteration:  1944charge 0 multiplicity 1
 C         3.964678        -2.520933        -0.153201
 C         3.138460        -1.215662         0.084970
 O         2.278854        -0.748731        -0.939288
 C         1.551967         0.111534         0.017941
 C         0.004481         0.366713        -0.250962
 C         2.211461         1.461255         0.014813
 O         3.514325         1.314304         0.536608
 C         3.600093        -0.030692         0.993658
 C         2.272010        -0.681354         1.282932
 H         4.856530        -2.234844        -0.821392
 H         4.376589        -2.722936         0.829717
 H         3.423630        -3.314753        -0.703275
 H        -0.276657        -0.207056        -1.119712
 H        -0.786782         0.233533         0.461453
 H        -0.196566         1.423341        -0.506822
 H         2.273406         1.813306        -1.038635
 H         1.568323         2.062182         0.602328
 H         4.354186        -0.250444         1.841248
 H         1.844574        -1.152000         2.133887
