19
Iteration:  1165
 C         3.912539        -2.553860         0.159418
 C         3.111813        -1.230781         0.204637
 O         2.121179        -0.880690        -0.897422
 C         1.491202         0.174795         0.113298
 C         0.001922         0.097759         0.265061
 C         2.202344         1.513574        -0.203423
 O         3.559085         1.324734        -0.008058
 C         3.724754         0.072654         0.714746
 C         2.410239        -0.391287         1.172502
 H         4.917602        -2.213616         0.515603
 H         3.576467        -3.306794         0.876598
 H         3.983474        -3.082196        -0.830183
 H        -0.470667        -0.114430        -0.730655
 H        -0.274945        -0.759345         0.888161
 H        -0.309041         1.059970         0.817158
 H         1.957409         1.860568        -1.197636
 H         1.965446         2.312456         0.457402
 H         4.522658        -0.015959         1.534046
 H         2.030581        -0.449067         2.132945
