19
Iteration:  4665charge 0 multiplicity 1
 C         3.574749        -2.612526        -0.172062
 C         3.133189        -1.174021         0.160273
 O         2.565869        -0.478868        -0.983341
 C         1.527375         0.228720        -0.004104
 C         0.109281         0.039959        -0.627061
 C         2.250270         1.589243         0.060350
 O         3.622535         1.274539         0.695743
 C         3.537927        -0.021414         1.235914
 C         2.173032        -0.718629         1.256716
 H         2.653804        -3.392299        -0.311831
 H         4.085449        -2.520922        -1.140984
 H         4.206479        -3.144930         0.523593
 H        -0.700333        -0.152875         0.108587
 H        -0.320244         0.977765        -1.192751
 H         0.129213        -0.944917        -1.055123
 H         2.469705         1.883738        -0.992028
 H         1.960709         2.355456         0.723865
 H         4.253592        -0.091896         2.021267
 H         1.636553        -1.070255         2.122232
