19
Iteration:  2346
 C         3.953361        -2.358671        -0.155261
 C         3.094546        -1.215220        -0.005353
 O         2.416214        -0.457884        -1.091433
 C         1.554435         0.226038        -0.032964
 C         0.100186         0.157405        -0.395220
 C         2.376373         1.526115         0.200255
 O         3.551614         1.125473         0.875986
 C         3.393121        -0.204591         1.080529
 C         2.013538        -0.697933         1.021750
 H         3.134830        -3.146535        -0.014161
 H         4.655329        -2.372095        -1.000730
 H         4.611986        -2.467040         0.731270
 H        -0.006813         0.756035        -1.294470
 H        -0.045873        -0.880258        -0.702309
 H        -0.601437         0.414216         0.357026
 H         2.560129         1.959133        -0.750851
 H         1.826049         2.103260         0.979420
 H         4.172355        -0.462915         1.843890
 H         1.427863        -1.185046         1.851466
