19
Iteration:  1841charge 0 multiplicity 1
 C         3.627584        -2.555280        -0.087397
 C         3.164396        -1.150476         0.090388
 O         2.333844        -0.607596        -0.935546
 C         1.568598         0.034370         0.097623
 C         0.155238         0.065340        -0.259913
 C         2.183221         1.520261         0.227429
 O         3.518588         1.373319         0.393691
 C         3.709428         0.036467         0.882902
 C         2.333133        -0.602398         1.164086
 H         3.527279        -3.089651         0.834449
 H         3.042205        -2.986934        -0.939011
 H         4.626373        -2.726731        -0.550462
 H        -0.479599        -0.681749         0.314196
 H        -0.372176         1.086251        -0.184057
 H         0.073964        -0.293164        -1.306878
 H         1.751406         2.064734        -0.598205
 H         1.815521         2.014502         1.130328
 H         4.477805        -0.002203         1.651720
 H         2.052395        -1.212801         2.046774
