19
Iteration:  4921
 C         3.951560        -2.352107        -0.267685
 C         3.131460        -1.171900         0.124474
 O         2.360494        -0.586745        -1.019513
 C         1.573870         0.184799        -0.018813
 C         0.144167         0.296755        -0.514338
 C         2.288640         1.520318         0.085254
 O         3.502558         1.181235         0.839622
 C         3.528313        -0.237696         1.203471
 C         1.995570        -0.764362         1.165955
 H         3.501655        -2.843025        -1.115758
 H         4.944014        -1.930073        -0.619434
 H         4.019887        -3.083946         0.551603
 H        -0.524448        -0.283661         0.136029
 H        -0.226407         1.243144        -0.472897
 H         0.202400         0.023396        -1.597524
 H         2.541056         1.963800        -0.890512
 H         1.808870         2.174159         0.813691
 H         4.199763        -0.568450         1.987269
 H         1.405298        -1.324662         1.874127
