19
Iteration:  3476charge 0 multiplicity 1
 C         3.744058        -2.574887        -0.036265
 C         3.010583        -1.260121         0.265988
 O         2.491029        -0.611565        -0.973930
 C         1.655359         0.175776        -0.058529
 C         0.100235         0.182324        -0.492279
 C         2.384828         1.566399        -0.100456
 O         3.595723         1.248962         0.658086
 C         3.510492        -0.045768         1.184174
 C         2.016383        -0.593507         1.148779
 H         3.138146        -3.417227        -0.101023
 H         4.151439        -2.439663        -1.034450
 H         4.514342        -2.649207         0.753529
 H        -0.213282         1.096578        -1.092464
 H        -0.195484        -0.709504        -1.067749
 H        -0.495813         0.147388         0.436813
 H         2.609677         1.851238        -1.083802
 H         1.770650         2.289496         0.431916
 H         4.107468        -0.268926         2.086609
 H         1.217667        -0.905593         1.909286
