19
Iteration:  3941charge 0 multiplicity 1
 C         3.656745        -2.606098         0.336544
 C         3.064239        -1.212551         0.141538
 O         2.523601        -0.598958        -1.052114
 C         1.618429         0.175288        -0.122451
 C         0.025114         0.205855        -0.383090
 C         2.345614         1.556349        -0.027463
 O         3.612571         1.227732         0.489246
 C         3.531091        -0.090090         1.079195
 C         2.115687        -0.578124         1.046803
 H         3.179697        -3.372557        -0.400325
 H         4.718715        -2.600123        -0.015778
 H         3.622289        -2.853332         1.447699
 H        -0.372759        -0.592957        -1.123429
 H        -0.534092         0.164717         0.540520
 H        -0.318091         1.141949        -0.806587
 H         2.581416         1.901019        -1.080521
 H         1.866659         2.260574         0.675368
 H         4.233191        -0.259793         1.967516
 H         1.618098        -0.662973         2.052727
