19
Iteration:  1366
 C         3.780323        -2.501134        -0.023539
 C         3.162154        -1.171590         0.239177
 O         2.127945        -0.927078        -0.728290
 C         1.557830         0.097552         0.220840
 C         0.051715         0.131565         0.063753
 C         2.117357         1.433452        -0.305540
 O         3.489622         1.338085         0.039529
 C         3.845934         0.166135         0.715802
 C         2.443126        -0.416566         1.383831
 H         4.772590        -2.716929         0.465155
 H         3.158390        -3.325929         0.465836
 H         3.893126        -2.748929        -1.074656
 H        -0.277765         0.004197        -1.017716
 H        -0.435112        -0.568272         0.803717
 H        -0.253762         1.159221         0.302667
 H         1.959993         1.462328        -1.421444
 H         1.657269         2.296230         0.229945
 H         4.747190         0.001089         1.347110
 H         2.437438        -0.420964         2.494689
