19
Iteration:  4233charge 0 multiplicity 1
 C         3.588321        -2.563908         0.133481
 C         3.120368        -1.183229         0.179975
 O         2.382752        -0.607051        -0.998536
 C         1.625769         0.199411        -0.103375
 C         0.188477         0.086704        -0.506482
 C         2.293395         1.529637         0.027031
 O         3.623941         1.272772         0.596574
 C         3.529963        -0.072448         1.125598
 C         2.183494        -0.581365         1.113870
 H         2.694434        -3.143969         0.258888
 H         4.035174        -2.739160        -0.928551
 H         4.347171        -2.869207         0.864882
 H        -0.452366         0.621408         0.239819
 H        -0.020950         0.681022        -1.396769
 H         0.038856        -0.970838        -0.706157
 H         2.456367         1.999487        -0.945078
 H         1.698052         2.254805         0.545757
 H         4.195389        -0.167519         1.946059
 H         1.598372        -0.699053         2.027497
