19
Iteration:  4482charge 0 multiplicity 1
 C         3.738753        -2.611711         0.170186
 C         3.173417        -1.210306         0.158219
 O         2.463234        -0.529223        -1.035996
 C         1.581899         0.179204        -0.159910
 C         0.125405         0.246445        -0.499723
 C         2.227699         1.498954         0.075020
 O         3.604041         1.220479         0.620691
 C         3.520400        -0.079360         1.105973
 C         2.121219        -0.588549         1.080637
 H         2.828960        -3.191190        -0.100883
 H         4.376558        -3.054131        -0.636480
 H         4.031218        -2.818908         1.190299
 H        -0.133116         1.253479        -0.921919
 H        -0.146568        -0.673723        -1.090345
 H        -0.448257         0.135762         0.442110
 H         2.304232         1.963078        -0.934802
 H         1.644859         2.056516         0.801182
 H         4.179721        -0.377923         1.958021
 H         1.479769        -0.968152         1.883983
