19
Iteration:  4699
 C         3.750302        -2.500686        -0.156303
 C         3.053512        -1.212158         0.157486
 O         2.431869        -0.667369        -0.981511
 C         1.624754         0.212787        -0.071005
 C         0.227767         0.191411        -0.515884
 C         2.206900         1.572301         0.107078
 O         3.553999         1.223647         0.695721
 C         3.529702        -0.091560         1.162247
 C         2.107094        -0.659392         1.188767
 H         3.138449        -3.155546        -0.904319
 H         4.623118        -2.233350        -0.794239
 H         4.166602        -2.950494         0.748752
 H        -0.180812         1.025002         0.127536
 H         0.058100         0.330143        -1.662467
 H        -0.294846        -0.740383        -0.264508
 H         2.472219         2.179106        -0.778445
 H         1.669284         2.253534         0.762918
 H         4.184804        -0.256190         1.988711
 H         1.438692        -0.914214         2.002687
