19
Iteration:   633
 C         4.091489        -2.381035        -0.071247
 C         3.209117        -1.240918         0.123034
 O         2.045212        -1.025509        -0.797311
 C         1.450097         0.091206         0.165651
 C        -0.022157         0.408422         0.339624
 C         2.161855         1.430046        -0.292573
 O         3.542492         1.261893         0.089999
 C         3.659896         0.019412         0.766408
 C         2.390475        -0.445763         1.213106
 H         4.496040        -2.587088         0.993725
 H         3.544163        -3.287204        -0.288162
 H         4.974099        -2.089865        -0.661123
 H        -0.471423         0.947333        -0.501647
 H        -0.571744        -0.502708         0.155091
 H        -0.207455         0.861349         1.327339
 H         1.956300         1.467801        -1.392288
 H         1.752141         2.238374         0.233672
 H         4.620291        -0.117603         1.363256
 H         2.251529        -0.708061         2.259570
