19
Iteration:   101charge 0 multiplicity 1
 C         3.831906        -2.514148         0.050047
 C         3.149124        -1.189617         0.156918
 O         2.093378        -0.830022        -0.873734
 C         1.529179         0.134351         0.135202
 C        -0.037379         0.075771         0.082026
 C         2.142296         1.512042        -0.148985
 O         3.579565         1.349592         0.136196
 C         3.803649         0.061004         0.799944
 C         2.473939        -0.455742         1.227427
 H         4.399842        -2.842740         0.986055
 H         3.036401        -3.302351        -0.009396
 H         4.478355        -2.533067        -0.758325
 H        -0.485762         0.986533        -0.228906
 H        -0.129179        -0.783457        -0.583061
 H        -0.457882        -0.094121         1.080518
 H         2.057184         1.829950        -1.184845
 H         1.745480         2.347017         0.463529
 H         4.852820        -0.077541         1.211460
 H         2.066282        -0.732120         2.294165
