19
Iteration:  4994charge 0 multiplicity 1
 C         3.782814        -2.454563        -0.145111
 C         3.117696        -1.152490        -0.041964
 O         2.507433        -0.400218        -1.104948
 C         1.602026         0.169604        -0.043479
 C         0.156637         0.168370        -0.500624
 C         2.188489         1.550850         0.328447
 O         3.560754         1.219622         0.857757
 C         3.496832        -0.211102         1.087763
 C         2.083738        -0.809629         1.104169
 H         2.983930        -3.147647        -0.347772
 H         4.559593        -2.601577        -0.882933
 H         4.092011        -2.632809         0.914311
 H        -0.522485         0.840204         0.063907
 H         0.220496         0.549642        -1.583928
 H        -0.189918        -0.909976        -0.588995
 H         2.342584         2.238510        -0.489675
 H         1.593761         2.011180         1.131868
 H         4.285661        -0.439496         1.795953
 H         1.458891        -1.548269         1.592452
