19
Iteration:  1591
 C         3.946714        -2.497147        -0.079255
 C         3.162955        -1.186958         0.176021
 O         2.137654        -0.861652        -0.858146
 C         1.542344         0.077359         0.159361
 C         0.002834         0.273351         0.010810
 C         2.182325         1.449097        -0.164704
 O         3.503079         1.339727         0.302926
 C         3.691692         0.080860         0.813402
 C         2.366137        -0.590862         1.279122
 H         3.816970        -3.413238         0.459336
 H         3.625075        -2.645448        -1.168274
 H         5.019309        -2.378810        -0.326896
 H        -0.109729         0.996853        -0.790009
 H        -0.535394        -0.640307        -0.220993
 H        -0.455542         0.686714         0.872679
 H         2.263150         1.760210        -1.220690
 H         1.647218         2.162870         0.483475
 H         4.642538         0.139709         1.346158
 H         2.133980        -0.997754         2.227218
