19
Iteration:   144
 C         3.526326        -2.698974         0.221157
 C         3.144900        -1.201173         0.091987
 O         2.348397        -0.571052        -1.036696
 C         1.548985         0.245359         0.020900
 C         0.121350        -0.238167         0.240571
 C         2.118199         1.661130         0.016327
 O         3.542677         1.279483         0.032254
 C         3.808913         0.155120         0.734960
 C         2.445159        -0.444240         1.167246
 H         4.035206        -2.897251         1.221322
 H         2.599662        -3.312099         0.293000
 H         4.146972        -2.955248        -0.549553
 H        -0.602292         0.059849        -0.439108
 H         0.064946        -1.321238         0.188632
 H        -0.376586         0.149787         1.117536
 H         1.910317         2.231587        -0.872796
 H         1.711029         2.173885         0.887026
 H         4.826727         0.151086         1.204072
 H         1.916668        -0.756981         2.186880
