19
Iteration:  1638charge 0 multiplicity 1
 C         3.747458        -2.481485        -0.097001
 C         3.127053        -1.123917         0.151105
 O         2.243834        -0.687342        -0.944319
 C         1.526170         0.209807         0.016241
 C         0.001757        -0.103161         0.042752
 C         2.238543         1.577718        -0.003881
 O         3.658085         1.312489         0.281752
 C         3.696521         0.022319         0.904355
 C         2.301368        -0.526556         1.195610
 H         4.534427        -2.635450         0.694802
 H         2.974059        -3.319509        -0.002994
 H         4.118885        -2.655204        -1.103689
 H        -0.329514        -0.593472        -0.898180
 H        -0.016476        -0.826555         0.849365
 H        -0.708550         0.717379         0.302957
 H         2.176631         1.794716        -1.102141
 H         1.923603         2.401990         0.613658
 H         4.416097        -0.218831         1.729592
 H         1.864589        -0.959710         2.110731
