19
Iteration:  2012
 C         3.701626        -2.509862        -0.157297
 C         3.163129        -1.149311         0.073579
 O         2.468651        -0.518433        -0.953718
 C         1.571967         0.202633        -0.027981
 C         0.157412        -0.050481        -0.240315
 C         2.266276         1.609809         0.102121
 O         3.586170         1.281567         0.501178
 C         3.526674        -0.105681         1.032709
 C         2.094050        -0.629052         1.223511
 H         3.037282        -3.007446        -0.966295
 H         4.693443        -2.694516        -0.587195
 H         3.427596        -3.106923         0.768801
 H         0.135128        -0.984557        -0.794729
 H        -0.395762        -0.104242         0.705247
 H        -0.341598         0.742316        -0.770175
 H         2.288376         2.209424        -0.825885
 H         1.720140         2.183106         0.838347
 H         4.257995        -0.165938         1.799952
 H         1.583674        -1.093474         2.109405
