19
Iteration:   617charge 0 multiplicity 1
 C         4.059318        -2.424843        -0.066751
 C         3.049684        -1.239736         0.195599
 O         2.091552        -0.875484        -0.806406
 C         1.522329         0.099362         0.093475
 C         0.017584         0.212078         0.343294
 C         2.201003         1.408805        -0.299665
 O         3.586689         1.269672         0.031688
 C         3.646664         0.060235         0.757703
 C         2.325851        -0.478733         1.293000
 H         4.731485        -2.559174         0.733904
 H         3.594406        -3.406396        -0.289942
 H         4.650410        -2.106923        -0.950025
 H        -0.474434         0.813034        -0.446115
 H        -0.505401        -0.688051         0.724097
 H        -0.014180         0.961099         1.149050
 H         2.200711         1.674450        -1.353376
 H         1.793749         2.320904         0.284170
 H         4.384960         0.125411         1.512837
 H         1.955239        -0.506974         2.329052
