19
Iteration:  4939charge 0 multiplicity 1
 C         3.933086        -2.334630        -0.392592
 C         3.044058        -1.264369         0.139559
 O         2.446884        -0.637476        -0.968970
 C         1.591725         0.164417        -0.104350
 C         0.149523         0.232052        -0.462885
 C         2.345107         1.461403         0.171723
 O         3.574522         1.211375         0.839784
 C         3.335078        -0.125351         1.259893
 C         2.041204        -0.670129         1.118763
 H         3.425437        -2.750948        -1.234208
 H         4.805508        -1.791555        -0.646739
 H         4.196753        -3.205420         0.214710
 H        -0.501752        -0.213591         0.308367
 H        -0.097791         1.335320        -0.705628
 H        -0.067974        -0.226409        -1.436290
 H         2.618671         1.813734        -0.820580
 H         1.676841         2.208212         0.697475
 H         3.997861        -0.349108         2.125744
 H         1.375910        -0.974735         1.933315
