19
Iteration:   150
 C         3.499242        -2.764996         0.187590
 C         3.153027        -1.207167         0.075799
 O         2.354437        -0.552389        -0.999615
 C         1.577132         0.218210         0.040656
 C         0.121046        -0.254767         0.216716
 C         2.125684         1.638886         0.001535
 O         3.489352         1.290739         0.045938
 C         3.759943         0.150613         0.739659
 C         2.483497        -0.357058         1.183093
 H         4.048353        -2.940116         1.090901
 H         2.605616        -3.377136         0.281570
 H         4.229502        -3.197783        -0.654066
 H        -0.549721         0.063565        -0.699636
 H         0.203892        -1.342378         0.513231
 H        -0.237638         0.385226         1.091595
 H         2.091684         2.309208        -0.904870
 H         1.635117         2.214083         0.852838
 H         4.690278         0.286537         1.327993
 H         2.197764        -0.693377         2.104826
