19
Iteration:  4812
 C         3.563947        -2.475675        -0.244018
 C         3.087678        -1.185910         0.141589
 O         2.498624        -0.477827        -0.953979
 C         1.613553         0.155615         0.043832
 C         0.284618        -0.040171        -0.553859
 C         2.242805         1.581614         0.131866
 O         3.574004         1.339648         0.789242
 C         3.491406        -0.145689         1.170812
 C         2.165573        -0.675186         1.142688
 H         2.762922        -3.104839        -0.567053
 H         4.038290        -2.305880        -1.289288
 H         4.355982        -3.004477         0.398257
 H         0.378693        -0.183632        -1.693685
 H        -0.434673        -0.718026        -0.094969
 H        -0.280665         1.004028        -0.611038
 H         2.360265         1.862759        -0.938874
 H         1.613002         2.328003         0.596692
 H         4.092299        -0.526012         2.000252
 H         1.613535        -1.112085         1.975229
