19
Iteration:  2145charge 0 multiplicity 1
 C         3.992438        -2.337376        -0.259502
 C         3.095758        -1.199124         0.058598
 O         2.364133        -0.655928        -1.026390
 C         1.540003         0.154842        -0.034330
 C         0.117145         0.279415        -0.399059
 C         2.261554         1.504423         0.133881
 O         3.548985         1.205166         0.804387
 C         3.524661        -0.209605         1.098810
 C         2.040876        -0.725102         1.158292
 H         5.014387        -2.072970         0.128567
 H         3.655893        -3.386872         0.120662
 H         3.935382        -2.448432        -1.419482
 H        -0.360225         1.163932         0.060175
 H        -0.029796         0.409644        -1.480635
 H        -0.435464        -0.604457        -0.074527
 H         2.312247         2.006314        -0.879682
 H         1.791745         2.260909         0.854603
 H         4.026453        -0.318877         2.130220
 H         1.657026        -0.820856         2.152883
