19
Iteration:  4855
 C         3.632479        -2.538354        -0.127831
 C         3.134815        -1.147696         0.072648
 O         2.610822        -0.454960        -1.085714
 C         1.596154         0.196924        -0.111438
 C         0.159260         0.036760        -0.484541
 C         2.217992         1.576245         0.319417
 O         3.574149         1.275064         0.733462
 C         3.511324        -0.143370         1.152210
 C         2.069955        -0.713641         1.040442
 H         2.914875        -3.306227        -0.271548
 H         4.206453        -2.560032        -1.128939
 H         4.337134        -2.793836         0.732724
 H        -0.128765        -0.851719        -1.114261
 H        -0.391701        -0.107891         0.388748
 H        -0.097533         1.051549        -0.978741
 H         2.240821         2.375237        -0.443947
 H         1.635812         1.824609         1.194016
 H         3.964177        -0.235374         2.137137
 H         1.555609        -1.117123         1.903226
