19
Iteration:  4835charge 0 multiplicity 1
 C         3.603102        -2.579786        -0.246331
 C         3.169291        -1.167983         0.154516
 O         2.594356        -0.364653        -0.950711
 C         1.568919         0.222024        -0.075397
 C         0.150031        -0.000876        -0.556578
 C         2.229090         1.591433         0.216883
 O         3.540661         1.192122         0.757318
 C         3.529599        -0.094083         1.171273
 C         2.144278        -0.638928         1.151774
 H         2.694406        -3.239511        -0.274119
 H         4.018867        -2.831444        -1.288015
 H         4.358106        -2.945317         0.512882
 H         0.279157        -0.668282        -1.489675
 H        -0.420035        -0.631035         0.243088
 H        -0.575984         0.792735        -1.017260
 H         2.237533         2.106861        -0.765839
 H         1.709765         2.259576         0.909706
 H         4.377229        -0.293179         1.783268
 H         1.488877        -1.161879         1.816212
