19
Iteration:  4597
 C         3.784271        -2.598790         0.096162
 C         3.206312        -1.192889         0.146384
 O         2.434035        -0.540626        -1.030297
 C         1.610269         0.184029        -0.083495
 C         0.121046         0.267666        -0.527962
 C         2.253954         1.581585         0.118700
 O         3.567959         1.227659         0.698626
 C         3.485873        -0.132428         1.042867
 C         2.053847        -0.693259         1.046182
 H         2.995943        -3.360142        -0.192563
 H         4.569014        -2.677930        -0.678861
 H         4.180681        -2.828159         1.100263
 H        -0.295770        -0.712551        -0.651510
 H        -0.404217         0.780646         0.350563
 H        -0.089429         0.641271        -1.531859
 H         2.357752         2.179484        -0.764883
 H         1.752214         2.072067         0.924336
 H         4.225879        -0.370635         1.863509
 H         1.542409        -1.108622         1.935680
