19
Iteration:   149charge 0 multiplicity 1
 C         3.503631        -2.757280         0.194101
 C         3.152025        -1.207983         0.077781
 O         2.354570        -0.553375        -1.006819
 C         1.571856         0.225238         0.036671
 C         0.121747        -0.254439         0.220896
 C         2.125639         1.643971         0.005154
 O         3.495670         1.284042         0.045285
 C         3.771008         0.154788         0.738846
 C         2.478123        -0.369123         1.183168
 H         4.040071        -2.942553         1.103136
 H         2.598351        -3.374833         0.295596
 H         4.233449        -3.166276        -0.644525
 H        -0.574522         0.079140        -0.667858
 H         0.192422        -1.362981         0.468706
 H        -0.268249         0.368167         1.102411
 H         2.069146         2.308527        -0.901195
 H         1.627990         2.206714         0.852351
 H         4.683024         0.275720         1.285470
 H         2.157636        -0.698293         2.097155
