19
Iteration:  1476
 C         3.556979        -2.658782         0.087786
 C         3.191618        -1.144582         0.154794
 O         2.231989        -0.784978        -0.855402
 C         1.652223         0.054959         0.164546
 C         0.109594        -0.038279         0.074832
 C         2.086779         1.522762        -0.098229
 O         3.512157         1.411925         0.105743
 C         3.777540         0.169573         0.696227
 C         2.543071        -0.392884         1.241932
 H         3.964037        -2.801379        -0.938434
 H         4.228673        -3.008560         0.820040
 H         2.597857        -3.163356         0.075460
 H        -0.358640        -0.288284         1.052330
 H        -0.434926         0.904504        -0.110713
 H        -0.320558        -0.783259        -0.630006
 H         1.985882         1.613309        -1.187281
 H         1.616401         2.283881         0.588115
 H         4.689622         0.169581         1.337712
 H         2.166034        -0.511330         2.226292
