19
Iteration:    65
 C         4.003076        -2.381753        -0.169837
 C         3.204177        -1.201992         0.233508
 O         2.090785        -0.957369        -0.755069
 C         1.516983         0.058525         0.126886
 C         0.052140         0.347678         0.131535
 C         2.175440         1.350219        -0.336948
 O         3.523511         1.248353         0.132032
 C         3.666045         0.066187         0.952680
 C         2.341334        -0.422923         1.357673
 H         4.850659        -2.626516         0.426702
 H         3.267329        -3.140471        -0.278441
 H         4.326492        -2.271112        -1.272203
 H        -0.104751         1.399490        -0.162047
 H        -0.503810        -0.139245        -0.664753
 H        -0.463049        -0.067251         0.982479
 H         2.167651         1.327683        -1.444985
 H         1.641336         2.192813         0.114885
 H         4.616217        -0.048530         1.517463
 H         1.904213        -0.491570         2.318962
