19
Iteration:  1061
 C         3.818600        -2.443248         0.196402
 C         3.078944        -1.118482         0.114363
 O         2.027133        -0.792494        -0.890700
 C         1.559670         0.180477         0.111458
 C         0.007404        -0.083968         0.333417
 C         2.309468         1.528563        -0.257141
 O         3.630268         1.279792        -0.064828
 C         3.732683         0.057738         0.710344
 C         2.404935        -0.420041         1.266476
 H         4.036257        -2.684108         1.187434
 H         3.168418        -3.295555        -0.186165
 H         4.784068        -2.334008        -0.269468
 H        -0.620311         0.522144        -0.338193
 H        -0.213710        -1.177142         0.336938
 H        -0.249397         0.292832         1.319199
 H         2.119556         1.710029        -1.347667
 H         1.807560         2.292530         0.366133
 H         4.591685        -0.187313         1.313197
 H         2.159850        -0.751100         2.291636
