19
Iteration:  3844charge 0 multiplicity 1
 C         3.700818        -2.505052         0.106357
 C         2.993668        -1.220403         0.258767
 O         2.479452        -0.668746        -0.995018
 C         1.569745         0.198946        -0.122261
 C         0.110160         0.208614        -0.444384
 C         2.363441         1.483663        -0.091703
 O         3.651825         1.203431         0.479954
 C         3.495852        -0.078002         1.224457
 C         2.094118        -0.510360         1.203493
 H         3.073914        -3.445557         0.278930
 H         3.991309        -2.446812        -0.866335
 H         4.669577        -2.516160         0.615359
 H        -0.413495        -0.715800        -0.015444
 H        -0.283907         1.163943        -0.122505
 H        -0.127892         0.119653        -1.497354
 H         2.615531         1.852206        -1.123086
 H         1.825223         2.212223         0.562686
 H         4.262417        -0.205500         1.985943
 H         1.407114        -0.908846         1.921734
