19
Iteration:   815charge 0 multiplicity 1
 C         3.988022        -2.385172        -0.071501
 C         3.077062        -1.241591         0.246932
 O         2.182939        -0.859905        -0.839412
 C         1.478092         0.121224         0.151093
 C        -0.051982         0.233151         0.323708
 C         2.140530         1.444378        -0.312199
 O         3.651854         1.192250        -0.041122
 C         3.707515         0.071923         0.816427
 C         2.294404        -0.470092         1.369023
 H         4.744559        -2.510390         0.788106
 H         3.419382        -3.221305        -0.398257
 H         4.495721        -2.158940        -1.060476
 H        -0.518347         0.618401        -0.583014
 H        -0.618104        -0.737938         0.327687
 H        -0.101743         0.828811         1.247826
 H         2.035365         1.657462        -1.378635
 H         1.826258         2.294591         0.215411
 H         4.684303        -0.169740         1.302638
 H         2.114172        -0.620285         2.447429
