19
Iteration:   800charge 0 multiplicity 1
 C         3.903152        -2.500191        -0.033612
 C         3.144316        -1.190672         0.170925
 O         2.145606        -0.891392        -0.827174
 C         1.513732         0.097303         0.207862
 C        -0.039635         0.231672         0.236893
 C         2.199197         1.412698        -0.195963
 O         3.567162         1.329977        -0.003192
 C         3.672601         0.087195         0.764063
 C         2.439602        -0.474590         1.281963
 H         4.756060        -2.650922         0.579434
 H         3.288580        -3.456763         0.215068
 H         4.343039        -2.402598        -1.038606
 H        -0.381216         0.562924        -0.782611
 H        -0.532507        -0.670062         0.591169
 H        -0.362683         1.021488         0.896474
 H         2.006932         1.528933        -1.267072
 H         1.792285         2.278025         0.416420
 H         4.665352         0.151313         1.348978
 H         2.067534        -0.752467         2.241671
