19
Iteration:  1068charge 0 multiplicity 1
 C         3.772343        -2.463743         0.182092
 C         3.063243        -1.110139         0.153622
 O         2.064644        -0.768807        -0.898492
 C         1.542831         0.150246         0.111837
 C         0.082405        -0.110219         0.337594
 C         2.213809         1.495031        -0.234475
 O         3.681205         1.262776        -0.085928
 C         3.717061         0.077246         0.736917
 C         2.360006        -0.362078         1.253353
 H         3.969343        -2.772989         1.247086
 H         3.135317        -3.213292        -0.332741
 H         4.705841        -2.560027        -0.439743
 H        -0.515514         0.375190        -0.454871
 H         0.029606        -1.182297         0.360056
 H        -0.184480         0.359000         1.309600
 H         2.034164         1.822637        -1.284768
 H         1.929740         2.365122         0.465590
 H         4.741781         0.071014         1.245252
 H         2.240859        -0.687676         2.234249
