19
Iteration:  3681charge 0 multiplicity 1
 C         3.651651        -2.641885         0.128472
 C         3.099240        -1.281315         0.133420
 O         2.463766        -0.620363        -1.041989
 C         1.589199         0.223445        -0.042482
 C         0.148118         0.202401        -0.526346
 C         2.243070         1.533358         0.090596
 O         3.517104         1.292315         0.606005
 C         3.595450        -0.084766         1.033664
 C         2.170446        -0.520256         1.175647
 H         2.670725        -3.349801         0.040872
 H         4.339792        -2.756475        -0.670623
 H         4.257149        -2.830415         1.068512
 H        -0.003189         1.230376        -0.932117
 H         0.376828        -0.562513        -1.270402
 H        -0.599537        -0.041841         0.206265
 H         2.438385         1.991244        -0.895755
 H         1.816957         2.190022         0.841600
 H         4.463184        -0.289572         1.714914
 H         1.628713        -0.905744         2.070561
