19
Iteration:  4913charge 0 multiplicity 1
 C         3.943608        -2.394047        -0.204540
 C         3.141068        -1.140729         0.028597
 O         2.401718        -0.573186        -0.986217
 C         1.521196         0.230963        -0.023970
 C         0.111732         0.305044        -0.535213
 C         2.281230         1.512599         0.167723
 O         3.534665         1.189881         0.834747
 C         3.446947        -0.252043         1.171876
 C         2.080736        -0.808418         1.157278
 H         3.428424        -3.057725        -1.048520
 H         5.011208        -2.045313        -0.448512
 H         4.134309        -3.069412         0.650358
 H        -0.528700        -0.500075        -0.089036
 H        -0.275970         1.448784        -0.426345
 H        -0.026194         0.108531        -1.615387
 H         2.450831         1.865805        -0.888317
 H         1.682325         2.311514         0.614874
 H         4.366865        -0.512380         1.685375
 H         1.502399        -1.264106         1.978392
