19
Iteration:   657charge 0 multiplicity 1
 C         3.974673        -2.393619        -0.001215
 C         3.065690        -1.254120         0.166151
 O         1.972245        -0.927291        -0.779827
 C         1.504298         0.005180         0.195391
 C         0.025544         0.283938         0.221218
 C         2.202174         1.372605        -0.274992
 O         3.561974         1.416262         0.085137
 C         3.763147         0.133940         0.654999
 C         2.483460        -0.560171         1.305185
 H         4.257036        -2.752401         0.997957
 H         3.415412        -3.307776        -0.430124
 H         4.866769        -2.069250        -0.496810
 H        -0.203511         1.138373        -0.443050
 H        -0.630295        -0.444336        -0.196591
 H        -0.206202         0.561915         1.253230
 H         1.963669         1.437518        -1.321901
 H         1.731711         2.109879         0.303210
 H         4.743007         0.075223         1.018100
 H         2.323315        -1.037472         2.334109
