19
Iteration:  3454charge 0 multiplicity 1
 C         3.781204        -2.522391        -0.011784
 C         3.226696        -1.101865         0.232070
 O         2.508024        -0.739610        -0.993266
 C         1.564822         0.169369        -0.124601
 C         0.010419         0.339566        -0.502395
 C         2.342696         1.448970        -0.097290
 O         3.542699         1.236922         0.714416
 C         3.441516        -0.055041         1.196453
 C         2.099610        -0.620943         1.183841
 H         2.890344        -3.048463        -0.155243
 H         4.127243        -2.587044        -1.036414
 H         4.474207        -3.050959         0.661279
 H        -0.155794         1.239319        -1.178234
 H        -0.489069        -0.561356        -0.952628
 H        -0.392660         0.495813         0.501411
 H         2.631983         1.503422        -1.113835
 H         1.881061         2.381458         0.183062
 H         3.990917        -0.473964         2.044142
 H         1.681961        -1.152010         2.116374
