19
Iteration:  3175
 C         3.607207        -2.598947         0.043771
 C         3.145830        -1.181249         0.169114
 O         2.670708        -0.622009        -1.027332
 C         1.642387         0.191703        -0.127058
 C         0.168047         0.094906        -0.432129
 C         2.253544         1.599815         0.056101
 O         3.526220         1.248955         0.638677
 C         3.488316        -0.053308         1.152333
 C         2.063959        -0.541883         1.056330
 H         2.858017        -2.933912        -0.652417
 H         4.548225        -2.792914        -0.519780
 H         3.563799        -3.141201         1.032359
 H        -0.257074         0.181223        -1.527719
 H        -0.257235        -0.803676         0.011016
 H        -0.272389         0.923286         0.283863
 H         2.196872         2.174561        -0.961994
 H         1.507036         2.108442         0.764348
 H         4.092898        -0.257020         2.030078
 H         1.503172        -1.023056         1.850659
