19
Iteration:  3083charge 0 multiplicity 1
 C         3.878744        -2.491162        -0.073512
 C         3.127166        -1.285709         0.285660
 O         2.409357        -0.800512        -0.891176
 C         1.569714         0.155808        -0.068065
 C         0.149294         0.392738        -0.650650
 C         2.317005         1.476974        -0.024503
 O         3.513386         1.253978         0.626017
 C         3.458268        -0.067734         1.180661
 C         2.059656        -0.611033         1.248953
 H         3.063649        -3.252724        -0.342593
 H         4.471705        -2.402555        -1.081239
 H         4.520977        -2.838966         0.736189
 H         0.137467         1.424761        -0.966272
 H        -0.086216        -0.308346        -1.579001
 H        -0.544863         0.296555         0.164463
 H         2.629419         1.937080        -0.949819
 H         1.757157         2.300967         0.485245
 H         4.213504         0.020824         1.944268
 H         1.402059        -0.689370         2.176236
