19
Iteration:  3590
 C         3.718135        -2.500748        -0.040607
 C         3.091751        -1.154863         0.209504
 O         2.345269        -0.701599        -1.015671
 C         1.554134         0.224506        -0.072770
 C         0.077719         0.115095        -0.479251
 C         2.411944         1.586983        -0.021126
 O         3.662704         1.216718         0.673297
 C         3.500989        -0.050692         1.249087
 C         2.117186        -0.550246         1.119048
 H         3.215896        -3.286252        -0.711304
 H         4.701554        -2.465919        -0.605920
 H         3.971047        -3.011849         0.877544
 H         0.031143        -0.156223        -1.533831
 H        -0.546691        -0.715160         0.033360
 H        -0.477461         1.099122        -0.510624
 H         2.744088         1.766243        -1.108431
 H         2.002176         2.377097         0.568077
 H         4.069038        -0.376642         2.092053
 H         1.549665        -0.914259         1.933599
