19
Iteration:  3473charge 0 multiplicity 1
 C         3.739947        -2.556092        -0.050525
 C         3.045590        -1.264853         0.265887
 O         2.521329        -0.636302        -0.955952
 C         1.603140         0.167366        -0.071773
 C         0.058844         0.215723        -0.483622
 C         2.401599         1.549013        -0.111033
 O         3.598295         1.258750         0.672631
 C         3.522901        -0.041576         1.197474
 C         2.021301        -0.602519         1.126513
 H         3.017630        -3.481729        -0.064790
 H         4.143893        -2.357218        -1.027308
 H         4.474036        -2.600692         0.733115
 H        -0.246943         1.061665        -1.033083
 H        -0.219418        -0.716633        -1.075263
 H        -0.619412         0.218916         0.374395
 H         2.713009         1.771722        -1.146304
 H         1.743691         2.227293         0.478637
 H         4.141130        -0.166853         2.063805
 H         1.276397        -0.925378         1.877868
