19
Iteration:  3526
 C         3.603294        -2.635403         0.144338
 C         3.123233        -1.211296         0.170293
 O         2.466039        -0.508878        -1.020337
 C         1.620821         0.143416        -0.099398
 C         0.069764         0.130535        -0.586108
 C         2.271020         1.534794         0.195526
 O         3.700844         1.271810         0.506229
 C         3.560090        -0.018010         1.153415
 C         2.088168        -0.592597         1.118950
 H         2.808758        -3.339461        -0.405961
 H         4.467895        -2.652320        -0.537153
 H         3.741822        -2.803541         1.195126
 H         0.069505         0.415449        -1.596950
 H        -0.373035        -0.922703        -0.566422
 H        -0.507796         0.747025         0.092820
 H         2.276742         2.260838        -0.692696
 H         1.569585         1.966023         0.974429
 H         4.379721        -0.245864         1.777739
 H         1.919075        -1.246497         1.933191
