19
Iteration:  1419charge 0 multiplicity 1
 C         3.963498        -2.401387         0.087723
 C         3.017130        -1.201676         0.177522
 O         2.146630        -0.845541        -0.858910
 C         1.575775         0.172470         0.101129
 C         0.023091         0.105319         0.232720
 C         2.224444         1.515054        -0.196265
 O         3.595541         1.200564        -0.020916
 C         3.629366         0.035747         0.756653
 C         2.367026        -0.397916         1.279328
 H         4.989525        -2.152669        -0.002987
 H         3.819860        -3.208669         0.877045
 H         3.707287        -3.067446        -0.704641
 H        -0.184477        -1.013357         0.169513
 H        -0.407904         0.432587         1.249131
 H        -0.641644         0.602196        -0.500735
 H         2.048680         1.950925        -1.224105
 H         1.810036         2.356420         0.452902
 H         4.461545        -0.328095         1.308753
 H         1.962625        -0.592181         2.281578
