19
Iteration:   359
 C         3.524970        -2.571991         0.189243
 C         3.060898        -1.200988         0.092813
 O         2.352737        -0.659712        -1.007190
 C         1.567037         0.232898         0.123634
 C         0.167984        -0.211939         0.253477
 C         2.115983         1.616014        -0.031014
 O         3.535567         1.326720        -0.033801
 C         3.828464         0.094185         0.712072
 C         2.418757        -0.481512         1.237856
 H         4.378191        -2.578726         0.922485
 H         2.810679        -3.224916         0.608604
 H         3.866447        -2.800871        -0.827198
 H        -0.527952         0.051038        -0.566926
 H         0.185217        -1.315922         0.413503
 H        -0.403348         0.288362         1.068723
 H         1.886269         1.978632        -1.036883
 H         1.817099         2.395704         0.659713
 H         4.665035         0.083744         1.300526
 H         1.953372        -0.667665         2.262574
