19
Iteration:  1904
 C         3.740073        -2.466008        -0.178204
 C         3.105530        -1.161450         0.062562
 O         2.332251        -0.641717        -0.986164
 C         1.581521         0.209045         0.038915
 C         0.100378         0.018951        -0.125131
 C         2.273340         1.508391        -0.081374
 O         3.582776         1.274195         0.553193
 C         3.534939        -0.065298         1.074695
 C         2.223055        -0.504444         1.205067
 H         4.837406        -2.453910         0.026643
 H         3.309343        -3.161614         0.546260
 H         3.704813        -2.816406        -1.245205
 H         0.165768        -0.976977        -0.584133
 H        -0.385260        -0.201305         0.848864
 H        -0.294573         0.710161        -0.871470
 H         2.449161         1.977832        -1.062491
 H         1.814507         2.251013         0.700682
 H         4.371457        -0.203382         1.771077
 H         1.726754        -1.112935         1.953366
