19
Iteration:  2305charge 0 multiplicity 1
 C         3.973103        -2.405618        -0.365236
 C         3.147143        -1.186194         0.114940
 O         2.454017        -0.631348        -1.043587
 C         1.586473         0.179293        -0.072993
 C         0.121608         0.373386        -0.405231
 C         2.282861         1.444843         0.114961
 O         3.446370         1.206362         0.916681
 C         3.439827        -0.115718         1.183179
 C         2.039429        -0.801264         1.130200
 H         3.560631        -2.879711        -1.264590
 H         4.919335        -1.988808        -0.681185
 H         4.189041        -3.175474         0.359258
 H        -0.088339         0.325198        -1.517351
 H        -0.461299        -0.465979         0.068098
 H        -0.170315         1.357828        -0.048413
 H         2.453816         1.908921        -0.915682
 H         1.742455         2.177834         0.711873
 H         3.989516        -0.556025         2.100459
 H         1.420287        -1.177886         1.948480
