19
Iteration:  1511
 C         3.658247        -2.546570         0.028256
 C         3.189918        -1.189216         0.182350
 O         2.223106        -0.727566        -0.845388
 C         1.577822         0.124761         0.141778
 C        -0.001853        -0.155523         0.083840
 C         2.191142         1.622222        -0.074292
 O         3.597248         1.303605         0.040235
 C         3.762117         0.135684         0.801714
 C         2.404442        -0.392217         1.224540
 H         3.178879        -2.867513        -0.941143
 H         4.672640        -2.819187         0.031280
 H         3.141457        -3.140858         0.814440
 H        -0.374736         0.367332         0.954977
 H        -0.414780         0.229025        -0.838780
 H        -0.205490        -1.229055         0.228236
 H         1.989174         1.858008        -1.109613
 H         1.761885         2.472435         0.517855
 H         4.689363         0.061766         1.411281
 H         2.106518        -0.738020         2.255841
