19
Iteration:  3882
 C         3.587742        -2.695258         0.096399
 C         3.113987        -1.225940         0.199634
 O         2.415016        -0.660997        -0.843694
 C         1.637445         0.247052        -0.058462
 C         0.097050         0.106444        -0.631177
 C         2.305372         1.577991        -0.068424
 O         3.615360         1.279463         0.526253
 C         3.623244        -0.081810         1.104410
 C         2.133505        -0.381860         1.279186
 H         2.748483        -3.331447        -0.101023
 H         4.239334        -2.715292        -0.942443
 H         4.139141        -3.229631         0.863629
 H         0.019867        -0.924253        -0.822642
 H        -0.611266         0.105649         0.221276
 H        -0.086743         0.776666        -1.493917
 H         2.362658         2.070304        -1.030775
 H         1.709171         2.319870         0.490315
 H         4.462714        -0.241062         1.763964
 H         1.605860        -0.684462         2.194651
