19
Iteration:  4706charge 0 multiplicity 1
 C         3.837800        -2.506766        -0.134209
 C         3.034487        -1.257902         0.163323
 O         2.432452        -0.661799        -1.036385
 C         1.618785         0.203625        -0.101688
 C         0.149957         0.246965        -0.464381
 C         2.269388         1.588662         0.142269
 O         3.570618         1.234610         0.687502
 C         3.466257        -0.078944         1.156883
 C         2.106408        -0.662829         1.175622
 H         3.157556        -3.189121        -0.668146
 H         4.741055        -2.213747        -0.634776
 H         4.119386        -3.100818         0.725207
 H        -0.372402         1.137523        -0.125044
 H         0.113007         0.219165        -1.626679
 H        -0.279745        -0.697345        -0.150702
 H         2.465396         2.179501        -0.760135
 H         1.494952         2.118080         0.780625
 H         4.225700        -0.390243         1.875243
 H         1.539645        -1.027438         2.032837
