19
Iteration:  2882charge 0 multiplicity 1
 C         3.873621        -2.497438         0.073816
 C         3.141523        -1.190948         0.119621
 O         2.446774        -0.665617        -1.038746
 C         1.598220         0.134635        -0.110896
 C         0.125629         0.407347        -0.349371
 C         2.296465         1.450338        -0.056190
 O         3.494246         1.266457         0.612179
 C         3.421646        -0.114818         1.172418
 C         2.102202        -0.717699         1.130786
 H         3.286959        -3.472283        -0.051087
 H         4.657044        -2.425116        -0.662270
 H         4.319637        -2.855703         1.025435
 H        -0.257490         0.027076        -1.303693
 H        -0.467030         0.211435         0.494902
 H         0.122447         1.509428        -0.534287
 H         2.473185         1.800523        -1.055990
 H         1.649531         2.176338         0.456854
 H         4.026295        -0.449871         1.974590
 H         1.470621        -1.199588         1.832262
