19
Iteration:  1459
 C         3.688338        -2.598432         0.080957
 C         3.205367        -1.195658         0.100869
 O         2.222113        -0.808484        -0.867012
 C         1.512768         0.171907         0.132224
 C         0.010440         0.011546         0.188073
 C         2.130161         1.532796        -0.190415
 O         3.566636         1.396519         0.074939
 C         3.784278         0.122969         0.759343
 C         2.445940        -0.467989         1.255600
 H         4.603270        -2.933919        -0.440010
 H         3.854432        -2.818407         1.184194
 H         2.758792        -3.177247        -0.226838
 H        -0.282488        -0.657956         0.983719
 H        -0.472470         0.993121         0.192156
 H        -0.130270        -0.514899        -0.760920
 H         1.895624         1.925651        -1.185342
 H         1.696194         2.227943         0.543466
 H         4.787242         0.095791         1.212257
 H         2.390369        -0.874391         2.347309
