19
Iteration:  2576charge 0 multiplicity 1
 C         3.697829        -2.502668        -0.230276
 C         3.113084        -1.171302         0.116906
 O         2.621088        -0.398660        -0.967113
 C         1.591362         0.237353        -0.044416
 C         0.168341        -0.001456        -0.490153
 C         2.211502         1.609918         0.199554
 O         3.540812         1.165036         0.719960
 C         3.500050        -0.136429         1.191802
 C         2.057936        -0.651827         1.042000
 H         2.965653        -3.361264        -0.198120
 H         4.139394        -2.374093        -1.203415
 H         4.452991        -2.871745         0.466571
 H         0.035761        -1.124034        -0.354476
 H        -0.503778         0.343517         0.379625
 H        -0.130692         0.384090        -1.441905
 H         2.272774         2.122937        -0.728053
 H         1.687168         2.178996         0.967781
 H         4.075621        -0.507953         1.984807
 H         1.392220        -1.049272         1.776858
