19
Iteration:   234
 C         4.063260        -2.321894        -0.076776
 C         3.086787        -1.289322         0.206506
 O         2.065766        -0.949153        -0.813990
 C         1.522636         0.128797         0.088729
 C         0.015609         0.320697         0.224555
 C         2.166230         1.469597        -0.246416
 O         3.563752         1.192226         0.056142
 C         3.660430         0.003256         0.817170
 C         2.366477        -0.477420         1.322189
 H         4.902140        -2.152000         0.560090
 H         3.716286        -3.375457         0.013183
 H         4.343818        -2.048119        -1.091182
 H        -0.560013         0.452300        -0.687581
 H        -0.542639        -0.468928         0.706424
 H        -0.050463         1.167471         0.877580
 H         2.209814         1.792571        -1.295434
 H         1.756288         2.239575         0.401538
 H         4.534267        -0.026333         1.467859
 H         2.077844        -0.897010         2.243397
