19
Iteration:  1703charge 0 multiplicity 1
 C         3.691157        -2.581791        -0.064995
 C         3.209376        -1.135800         0.060888
 O         2.270967        -0.731953        -0.971617
 C         1.542357         0.051102         0.096717
 C         0.018133         0.065474        -0.165445
 C         2.164094         1.494527         0.157288
 O         3.570992         1.388247         0.318975
 C         3.734837         0.109257         0.839782
 C         2.392234        -0.537860         1.309324
 H         4.376194        -2.775242        -0.907703
 H         4.032174        -2.916012         0.951005
 H         2.729250        -3.033907        -0.195915
 H        -0.208666        -0.649923        -0.955024
 H        -0.535650        -0.177845         0.717239
 H        -0.315971         1.035154        -0.535005
 H         2.058419         1.854535        -0.893314
 H         1.587344         2.166102         0.846450
 H         4.632314         0.089590         1.442200
 H         2.199814        -1.072921         2.276118
