19
Iteration:    27
 C         4.023611        -2.376455        -0.039643
 C         2.982903        -1.277292         0.174918
 O         1.979567        -0.855290        -0.779663
 C         1.538037         0.211421         0.127645
 C        -0.020931         0.052573         0.143918
 C         2.328718         1.524856        -0.325088
 O         3.696718         1.274293         0.110229
 C         3.628450        -0.052099         0.811566
 C         2.333440        -0.404768         1.364131
 H         4.932887        -2.397919         0.675948
 H         3.587849        -3.427307         0.094832
 H         4.375855        -2.186024        -1.053176
 H        -0.469881         0.986228         0.530948
 H        -0.267340        -0.218271        -0.922339
 H        -0.403659        -0.640015         0.950658
 H         2.239748         1.580811        -1.429766
 H         1.971477         2.540233         0.045871
 H         4.580238        -0.227273         1.375902
 H         1.898605        -0.266349         2.459090
