19
Iteration:  2243charge 0 multiplicity 1
 C         3.782891        -2.537128        -0.264747
 C         3.131091        -1.087442         0.061617
 O         2.529105        -0.391126        -1.047249
 C         1.591812         0.196628         0.020934
 C         0.197605         0.004824        -0.537267
 C         2.196409         1.575244         0.400513
 O         3.569989         1.186701         0.720364
 C         3.495316        -0.144319         1.067099
 C         2.016522        -0.731618         1.114283
 H         3.875004        -2.709285        -1.330568
 H         4.806259        -2.582252         0.198964
 H         3.094470        -3.248570         0.243255
 H         0.123855         0.261185        -1.603741
 H        -0.321046        -0.913164        -0.277747
 H        -0.458645         0.776316        -0.059264
 H         2.237612         2.554465        -0.145879
 H         1.623448         1.864661         1.325226
 H         4.274705        -0.409617         1.847545
 H         1.275901        -1.036256         1.799786
