19
Iteration:  1224charge 0 multiplicity 1
 C         3.949386        -2.512841        -0.030899
 C         3.171692        -1.212713         0.265217
 O         2.030627        -0.896485        -0.684431
 C         1.543964         0.138857         0.149049
 C        -0.047900         0.161497         0.117712
 C         2.178971         1.403328        -0.385479
 O         3.560693         1.328804        -0.002989
 C         3.748190         0.116601         0.784832
 C         2.437170        -0.362622         1.389412
 H         4.740807        -2.758751         0.696680
 H         3.258522        -3.453963         0.047796
 H         4.510321        -2.458419        -0.968148
 H        -0.503143         1.047763        -0.353543
 H        -0.371521        -0.855484        -0.212356
 H        -0.508194         0.254806         1.094590
 H         2.018812         1.419322        -1.496288
 H         1.800103         2.277843         0.127050
 H         4.684263        -0.198456         1.161347
 H         2.171555        -0.383839         2.530275
