19
Iteration:   671
 C         3.862831        -2.470464         0.011093
 C         3.141703        -1.171623         0.065755
 O         2.026291        -0.947990        -0.756808
 C         1.557687         0.124454         0.212691
 C         0.050514         0.173988         0.224506
 C         2.112387         1.440838        -0.216147
 O         3.561110         1.369351         0.083429
 C         3.742713         0.051831         0.674853
 C         2.511373        -0.429313         1.282581
 H         4.168440        -2.761314         0.981031
 H         3.307792        -3.288649        -0.530042
 H         4.757750        -2.399863        -0.632532
 H        -0.255491         0.957336        -0.535297
 H        -0.277398        -0.827150        -0.203434
 H        -0.475947         0.303612         1.174342
 H         2.067541         1.540918        -1.291004
 H         1.608552         2.378300         0.205536
 H         4.628342        -0.125535         1.281876
 H         2.361155        -0.565177         2.365300
