19
Iteration:   743
 C         3.520729        -2.616061         0.141568
 C         3.204172        -1.160650         0.057817
 O         2.190171        -0.659236        -0.879657
 C         1.559774         0.193407         0.141180
 C         0.065954        -0.264519         0.204931
 C         2.096148         1.587733        -0.094964
 O         3.647074         1.376773         0.028151
 C         3.817984         0.097461         0.703580
 C         2.510523        -0.385865         1.206067
 H         4.483483        -2.811827         0.618298
 H         2.692422        -3.194917         0.622929
 H         3.502689        -3.028781        -0.857512
 H        -0.329919        -0.492762        -0.802767
 H        -0.050614        -1.180333         0.748643
 H        -0.521996         0.509974         0.757345
 H         1.879106         2.114890        -1.052441
 H         1.771971         2.277251         0.756417
 H         4.655684         0.139960         1.311042
 H         2.272019        -0.626326         2.291940
