19
Iteration:  4003
 C         3.726513        -2.591795        -0.030193
 C         3.091143        -1.234077         0.341143
 O         2.458796        -0.729469        -0.846313
 C         1.560144         0.190674        -0.076388
 C         0.089670         0.247143        -0.588498
 C         2.359353         1.521637        -0.081616
 O         3.608651         1.272817         0.521941
 C         3.523130        -0.064530         1.140118
 C         2.064399        -0.495149         1.303336
 H         3.049252        -3.389869        -0.044269
 H         4.388504        -2.233875        -0.903840
 H         4.447412        -2.997977         0.614072
 H        -0.582860        -0.543770        -0.385471
 H        -0.316674         1.270576        -0.227297
 H         0.174649         0.320245        -1.694433
 H         2.456840         1.744358        -1.163826
 H         1.780855         2.407661         0.302322
 H         4.228759        -0.466573         1.895561
 H         1.374901        -1.097186         1.831425
