19
Iteration:  4689charge 0 multiplicity 1
 C         3.641357        -2.469832        -0.218946
 C         3.139924        -1.184347         0.173472
 O         2.449869        -0.600975        -0.885089
 C         1.620830         0.151938        -0.031200
 C         0.260379         0.105390        -0.563642
 C         2.255475         1.534413         0.076539
 O         3.521941         1.259050         0.693501
 C         3.549276        -0.138803         1.153981
 C         2.094315        -0.576362         1.180800
 H         2.876585        -3.205952        -0.676813
 H         4.465089        -2.255812        -0.955782
 H         4.065424        -3.006170         0.651413
 H        -0.413256         0.693317         0.120450
 H         0.211709         0.724540        -1.460726
 H        -0.229605        -0.884153        -0.530276
 H         2.313358         1.896497        -0.979628
 H         1.834445         2.212351         0.801394
 H         4.195381        -0.219786         2.004319
 H         1.446532        -0.956991         1.965080
