19
Iteration:  1019
 C         3.938640        -2.479426         0.044947
 C         3.151537        -1.247149         0.137271
 O         2.067541        -0.975196        -0.781466
 C         1.557610         0.006176         0.111974
 C         0.059278         0.344851         0.216848
 C         2.150811         1.386454        -0.279672
 O         3.479576         1.369580         0.055234
 C         3.673397         0.132776         0.750136
 C         2.497279        -0.490069         1.301241
 H         4.610928        -2.507125         0.875019
 H         3.280148        -3.386891         0.086229
 H         4.502247        -2.536280        -0.867394
 H        -0.102038         1.302871        -0.302855
 H        -0.552510        -0.526922        -0.121758
 H        -0.147608         0.563315         1.258156
 H         2.035251         1.582345        -1.335394
 H         1.742217         2.202891         0.227831
 H         4.595717         0.293683         1.215542
 H         1.977851        -0.559595         2.292709
