19
Iteration:   389charge 0 multiplicity 1
 C         3.803777        -2.494384         0.077020
 C         3.169957        -1.146380         0.071124
 O         2.043780        -0.850203        -0.907480
 C         1.508993         0.142278         0.132979
 C        -0.030722        -0.009218         0.193199
 C         2.149684         1.505794        -0.115406
 O         3.704412         1.344190         0.097832
 C         3.782601         0.059458         0.774727
 C         2.424339        -0.424025         1.232723
 H         4.672954        -2.392544         0.700886
 H         3.077122        -3.301874         0.210999
 H         4.176491        -2.748875        -1.001894
 H        -0.293489        -0.068017        -0.891710
 H        -0.340661        -0.926268         0.701143
 H        -0.587413         0.800623         0.702886
 H         2.109938         1.869725        -1.167768
 H         1.914590         2.349702         0.623825
 H         4.600199        -0.047067         1.496532
 H         2.041338        -0.448722         2.280821
