19
Iteration:  4713charge 0 multiplicity 1
 C         3.903296        -2.510221        -0.074666
 C         3.068436        -1.280907         0.148789
 O         2.424332        -0.631641        -1.052376
 C         1.594933         0.189787        -0.120059
 C         0.076447         0.283396        -0.443372
 C         2.342837         1.547115         0.161042
 O         3.578884         1.275422         0.685552
 C         3.414463        -0.130211         1.133519
 C         2.078884        -0.635231         1.124221
 H         3.346493        -3.211062        -0.657648
 H         4.862628        -2.293987        -0.653196
 H         4.068609        -3.111427         0.882507
 H        -0.607212         1.143527        -0.323528
 H         0.094252         0.206493        -1.436409
 H        -0.486050        -0.566231         0.048116
 H         2.377249         2.119437        -0.776702
 H         1.750679         2.016476         0.987712
 H         4.278405        -0.415661         1.798902
 H         1.562268        -1.155353         1.962923
