19
Iteration:  4288
 C         3.553292        -2.606757         0.005604
 C         3.130772        -1.215660         0.253752
 O         2.478790        -0.673453        -0.935173
 C         1.662346         0.243616        -0.098048
 C         0.199690         0.068165        -0.488554
 C         2.328309         1.572304         0.003821
 O         3.615766         1.252553         0.504204
 C         3.481276        -0.027696         1.142465
 C         2.071317        -0.454839         1.202006
 H         2.676736        -3.210404         0.074768
 H         4.197563        -2.549581        -0.947291
 H         4.193783        -3.037146         0.809349
 H        -0.433520        -0.474884         0.278476
 H        -0.262646         0.976782        -0.867155
 H         0.212823        -0.739315        -1.230263
 H         2.509461         2.132230        -0.932916
 H         1.739877         2.225409         0.722957
 H         4.196017        -0.049709         1.946153
 H         1.390501        -0.889644         1.905603
