19
Iteration:  4560charge 0 multiplicity 1
 C         3.822867        -2.434379        -0.094151
 C         3.086572        -1.232786         0.297276
 O         2.391788        -0.679537        -0.895016
 C         1.582736         0.181675        -0.126470
 C         0.154906         0.322343        -0.561544
 C         2.353173         1.484171        -0.010549
 O         3.583430         1.241158         0.639552
 C         3.485192        -0.153742         1.173104
 C         2.008497        -0.657472         1.209799
 H         3.258951        -2.825962        -0.930691
 H         4.805935        -2.059234        -0.638926
 H         4.215764        -3.197266         0.657802
 H         0.039955        -0.521136        -1.332313
 H        -0.547955         0.003594         0.176765
 H        -0.179889         1.401395        -0.730732
 H         2.568628         1.855797        -1.046389
 H         1.727812         2.287405         0.450150
 H         4.194783        -0.460316         1.897231
 H         1.433238        -0.997015         2.062693
