19
Iteration:  2702
 C         3.928376        -2.326652        -0.148706
 C         2.994496        -1.272185         0.195999
 O         2.537106        -0.664973        -1.016783
 C         1.533603         0.228494        -0.104769
 C         0.073441         0.238396        -0.408345
 C         2.329490         1.566250         0.060930
 O         3.650005         1.122774         0.663680
 C         3.355846        -0.167082         1.192679
 C         1.974283        -0.663986         1.169217
 H         3.570619        -3.139741        -0.812444
 H         4.630178        -1.673572        -0.842551
 H         4.704459        -2.685437         0.629898
 H        -0.376129         1.220748        -0.403485
 H        -0.062700        -0.299055        -1.301517
 H        -0.486339        -0.426801         0.286736
 H         2.698958         2.018919        -0.904786
 H         1.783144         2.195325         0.731917
 H         4.006756        -0.153871         2.058722
 H         1.312185        -1.034522         1.844316
