19
Iteration:  3266
 C         3.872850        -2.475271         0.118166
 C         3.146751        -1.214874         0.247185
 O         2.569951        -0.683834        -0.983249
 C         1.574452         0.212864        -0.202208
 C         0.086585         0.342385        -0.362591
 C         2.314569         1.514442        -0.029792
 O         3.565400         1.139134         0.575503
 C         3.351540        -0.083340         1.187317
 C         2.005551        -0.629300         0.981833
 H         3.123109        -3.322747        -0.007697
 H         4.281771        -2.459202        -0.840176
 H         4.625605        -2.769895         0.781117
 H        -0.174943         0.949571        -1.217720
 H        -0.435910        -0.624814        -0.729613
 H        -0.445818         0.628806         0.583493
 H         2.504253         2.141268        -0.896759
 H         1.903597         2.100132         0.838396
 H         3.945455        -0.395560         2.083427
 H         1.336109        -0.944597         1.763420
