19
Iteration:   699
 C         3.674209        -2.591689        -0.011480
 C         3.126776        -1.175069         0.217161
 O         2.204737        -0.731939        -0.803583
 C         1.544547         0.129105         0.094168
 C         0.012798        -0.133850         0.296783
 C         2.157825         1.571163        -0.159683
 O         3.635076         1.339296        -0.073386
 C         3.753985         0.124928         0.750298
 C         2.441849        -0.356924         1.272208
 H         4.306873        -2.955249         0.838954
 H         2.880663        -3.329986        -0.227019
 H         4.304212        -2.576276        -0.904919
 H        -0.541023         0.268242        -0.536571
 H        -0.181172        -1.150506         0.079265
 H        -0.350057         0.138707         1.297745
 H         2.075713         1.932593        -1.210811
 H         1.783978         2.337167         0.525995
 H         4.578625        -0.025557         1.408014
 H         2.210500        -0.567238         2.344421
