19
Iteration:  1030charge 0 multiplicity 1
 C         4.011071        -2.501264         0.147191
 C         3.138833        -1.219551         0.156029
 O         2.005636        -0.919017        -0.867782
 C         1.521098         0.111406         0.150022
 C         0.047944         0.267441         0.268403
 C         2.155837         1.387021        -0.279618
 O         3.547093         1.381421         0.087719
 C         3.741045         0.052612         0.628796
 C         2.408144        -0.441136         1.261133
 H         4.574000        -2.653404         1.053978
 H         3.382632        -3.394767        -0.024076
 H         4.695489        -2.393021        -0.681384
 H        -0.333036         1.122227        -0.312920
 H        -0.614822        -0.534061        -0.141464
 H        -0.237961         0.393516         1.304291
 H         2.053195         1.421000        -1.357052
 H         1.625827         2.163179         0.172303
 H         4.573842        -0.146496         1.222479
 H         2.188505        -0.664301         2.359973
