19
Iteration:  2371
 C         3.748517        -2.528172        -0.195456
 C         3.139698        -1.247468         0.114523
 O         2.527968        -0.452269        -1.052885
 C         1.563025         0.231542        -0.070324
 C         0.133708         0.154071        -0.546535
 C         2.148225         1.583993         0.291372
 O         3.569456         1.230233         0.776384
 C         3.522560        -0.151475         1.135858
 C         2.127636        -0.734002         1.105621
 H         3.061060        -3.349180        -0.011600
 H         4.090162        -2.440910        -1.215478
 H         4.660941        -2.665132         0.367361
 H        -0.232082         1.116572        -0.980961
 H        -0.016434        -0.687652        -1.273398
 H        -0.444203        -0.037764         0.353658
 H         2.103147         2.135846        -0.655627
 H         1.731389         2.023716         1.165307
 H         4.284535        -0.260658         1.990635
 H         1.656491        -1.382711         1.784085
