19
Iteration:  1708
 C         3.676738        -2.547490        -0.051811
 C         3.222364        -1.132191         0.056215
 O         2.254728        -0.733989        -0.944265
 C         1.522438         0.059954         0.120223
 C         0.045662         0.085185        -0.186102
 C         2.138922         1.472200         0.104205
 O         3.577566         1.399568         0.335206
 C         3.741293         0.056379         0.880165
 C         2.399189        -0.538035         1.263684
 H         4.316078        -2.594264        -0.958984
 H         4.291319        -2.891991         0.780825
 H         2.734202        -3.191724        -0.127252
 H        -0.246430        -0.681783        -0.933188
 H        -0.390365        -0.103947         0.857367
 H        -0.293828         1.098942        -0.539589
 H         2.018853         1.804947        -0.910432
 H         1.494043         1.987427         0.817086
 H         4.714044         0.010457         1.410949
 H         2.137253        -0.959771         2.217277
