19
Iteration:   689
 C         3.787073        -2.599111        -0.044087
 C         3.193739        -1.180145         0.160616
 O         2.121393        -0.828859        -0.820561
 C         1.508248         0.171684         0.178078
 C        -0.008955        -0.067364         0.211993
 C         2.218596         1.539054        -0.201642
 O         3.574095         1.331485         0.019510
 C         3.744458         0.117310         0.714367
 C         2.434933        -0.324729         1.337442
 H         4.168384        -2.939694         0.940916
 H         2.884854        -3.248764        -0.270689
 H         4.535857        -2.751460        -0.808980
 H        -0.581866         0.655045        -0.327810
 H        -0.162114        -1.088713         0.152534
 H        -0.318053         0.176896         1.233932
 H         1.979278         1.873211        -1.220385
 H         1.987693         2.327555         0.457465
 H         4.730221         0.167483         1.053753
 H         2.155648        -0.498180         2.422906
