19
Iteration:  4882charge 0 multiplicity 1
 C         3.833388        -2.536285        -0.039038
 C         3.157134        -1.160666         0.034101
 O         2.452155        -0.486557        -1.085589
 C         1.568772         0.230101        -0.096095
 C         0.169912         0.247271        -0.474003
 C         2.158112         1.522899         0.283527
 O         3.528764         1.230841         0.785635
 C         3.550333        -0.224926         1.119290
 C         2.102111        -0.741142         1.011037
 H         3.275977        -3.351593        -0.634454
 H         4.634433        -2.457029        -0.780226
 H         4.274371        -2.827779         0.901170
 H        -0.330181        -0.727068        -0.582394
 H        -0.490929         0.848475         0.371330
 H         0.113280         0.706622        -1.455417
 H         2.191756         2.251135        -0.560775
 H         1.437270         1.950085         1.034342
 H         4.339978        -0.444424         1.871066
 H         1.434803        -1.304408         1.686812
