19
Iteration:  2784
 C         3.592707        -2.616290        -0.023660
 C         3.156343        -1.211473         0.121427
 O         2.588552        -0.493235        -1.086274
 C         1.632668         0.168386        -0.102281
 C         0.145474         0.045072        -0.426743
 C         2.232202         1.536474         0.193410
 O         3.572797         1.318672         0.614875
 C         3.499628        -0.064556         1.190381
 C         2.132241        -0.588625         1.076816
 H         2.697928        -3.201500        -0.324367
 H         4.240180        -2.711825        -0.859510
 H         4.023810        -3.113518         0.820522
 H        -0.451809        -0.489652         0.332836
 H        -0.314413         1.033185        -0.605189
 H         0.114679        -0.652267        -1.318051
 H         2.202956         2.194897        -0.672427
 H         1.540626         2.082849         0.923082
 H         4.202680        -0.037708         2.039330
 H         1.529597        -0.935185         1.966263
