19
Iteration:  4094charge 0 multiplicity 1
 C         3.585148        -2.612525         0.124961
 C         3.087205        -1.264713         0.198327
 O         2.502463        -0.570056        -1.044230
 C         1.636396         0.231318        -0.127341
 C         0.208508         0.172418        -0.454672
 C         2.267778         1.575120         0.026629
 O         3.544381         1.254439         0.569051
 C         3.548589        -0.046325         1.122632
 C         2.127140        -0.654765         1.171711
 H         2.805805        -3.331309        -0.160307
 H         4.432342        -2.617019        -0.532796
 H         3.905235        -2.954824         1.157277
 H        -0.358267         1.026016         0.043489
 H         0.067430         0.417998        -1.465587
 H        -0.152346        -0.848263        -0.343168
 H         2.472625         2.056133        -0.969962
 H         1.677523         2.379211         0.532848
 H         4.393512        -0.095277         1.763860
 H         1.531799        -1.191821         1.944844
