19
Iteration:  1137charge 0 multiplicity 1
 C         3.619986        -2.554774         0.170008
 C         3.165651        -1.102171         0.167026
 O         2.078520        -0.815493        -0.838412
 C         1.543959         0.072323         0.206558
 C         0.069905        -0.082768         0.072022
 C         2.132679         1.493926        -0.177935
 O         3.557449         1.370383         0.011095
 C         3.802178         0.156539         0.629972
 C         2.656521        -0.376531         1.344987
 H         4.567454        -2.628463         0.635328
 H         2.822029        -3.099699         0.783556
 H         3.596476        -2.971765        -0.830380
 H        -0.178488        -0.375529        -0.936085
 H        -0.305927        -0.772749         0.835726
 H        -0.332634         0.909561         0.160333
 H         1.850985         1.833194        -1.221719
 H         1.870365         2.361527         0.541814
 H         4.702522         0.042648         1.114197
 H         2.387948        -0.857299         2.302035
