19
Iteration:  1829charge 0 multiplicity 1
 C         3.701283        -2.584094        -0.130505
 C         3.207844        -1.163334         0.070440
 O         2.329252        -0.671028        -0.930998
 C         1.525000         0.181048         0.141261
 C         0.043524         0.109917        -0.295361
 C         2.064438         1.485058         0.197563
 O         3.577779         1.372635         0.400481
 C         3.723087         0.044667         0.868665
 C         2.374832        -0.668323         1.247886
 H         3.364786        -3.265055         0.661533
 H         3.171774        -2.980847        -0.999166
 H         4.818161        -2.534768        -0.119335
 H        -0.627388        -0.510293         0.351008
 H        -0.309135         1.214440        -0.295861
 H         0.065150        -0.206579        -1.363640
 H         2.102157         2.145008        -0.666155
 H         1.559085         1.915334         1.089428
 H         4.607893        -0.146148         1.550123
 H         2.106578        -1.116237         2.191678
