19
Iteration:  3367
 C         3.619922        -2.520412        -0.011660
 C         3.059075        -1.223827         0.228705
 O         2.625908        -0.511356        -0.927725
 C         1.648326         0.209895        -0.028265
 C         0.211707         0.073575        -0.494165
 C         2.262193         1.590135         0.086743
 O         3.548945         1.159876         0.447768
 C         3.490240        -0.049565         1.159440
 C         2.018403        -0.632474         1.175745
 H         2.994865        -3.034905        -0.680101
 H         4.628793        -2.490395        -0.465172
 H         3.723331        -3.130413         0.886712
 H         0.247655         0.156514        -1.597633
 H        -0.496044        -0.754702        -0.235512
 H        -0.387316         0.953655        -0.302279
 H         2.384075         2.149157        -0.800778
 H         1.659293         2.266774         0.717041
 H         4.339412        -0.266698         1.798991
 H         1.447774        -0.996552         2.078070
