19
Iteration:  1159charge 0 multiplicity 1
 C         3.859364        -2.561924         0.178865
 C         3.123169        -1.220289         0.162379
 O         2.143887        -0.870758        -0.835048
 C         1.473199         0.179246         0.122476
 C        -0.006654         0.071667         0.241827
 C         2.192252         1.503633        -0.178120
 O         3.578513         1.382057        -0.006382
 C         3.785244         0.053270         0.681361
 C         2.402817        -0.434575         1.168371
 H         4.825428        -2.232237         0.499076
 H         3.366930        -3.258654         0.930933
 H         3.888471        -3.030073        -0.794235
 H        -0.374478        -0.096055        -0.755828
 H        -0.150828        -0.801058         0.894414
 H        -0.527312         0.968692         0.499906
 H         1.954091         1.838686        -1.233326
 H         1.787009         2.357628         0.506134
 H         4.684323         0.004982         1.221241
 H         2.079420        -0.433688         2.263284
