19
Iteration:  4353
 C         3.857814        -2.540708         0.202210
 C         3.006202        -1.244962         0.168880
 O         2.420944        -0.741942        -1.002898
 C         1.620944         0.168996        -0.144814
 C         0.057423         0.392948        -0.439483
 C         2.377991         1.478037         0.007623
 O         3.630482         1.275298         0.554764
 C         3.461475        -0.025024         1.024618
 C         2.071836        -0.666909         1.134857
 H         3.371649        -3.362065        -0.316023
 H         4.953045        -2.271703        -0.099858
 H         3.976751        -2.980243         1.245036
 H        -0.590639         0.117474         0.490110
 H        -0.279944         1.444393        -0.575664
 H        -0.182026        -0.311380        -1.249391
 H         2.360759         1.838968        -1.051821
 H         1.656907         2.228303         0.531395
 H         4.021930        -0.251305         1.953526
 H         1.498829        -1.142934         1.905059
