19
Iteration:  2758
 C         3.670486        -2.549636        -0.027582
 C         3.177237        -1.195325         0.059699
 O         2.468725        -0.630485        -0.993297
 C         1.615635         0.129249        -0.071926
 C         0.147139         0.225201        -0.542138
 C         2.212105         1.545410         0.172444
 O         3.462821         1.366481         0.748443
 C         3.616049        -0.120192         1.078821
 C         2.196899        -0.721243         1.138620
 H         2.790172        -3.208448        -0.125137
 H         4.288816        -2.820473        -0.987867
 H         4.318086        -2.847175         0.842233
 H        -0.536008         0.377962         0.295601
 H         0.031420         1.153469        -1.155191
 H        -0.190110        -0.650517        -1.004866
 H         2.378908         2.078991        -0.830458
 H         1.460507         2.165906         0.610824
 H         4.405280         0.016599         1.793280
 H         1.575968        -1.207282         1.906397
