19
Iteration:   133
 C         3.546553        -2.537711         0.239914
 C         3.124495        -1.137658         0.092601
 O         2.303129        -0.638539        -1.018217
 C         1.576042         0.171487         0.073030
 C         0.074638        -0.199327         0.219353
 C         2.136338         1.589897         0.018548
 O         3.621407         1.367583        -0.004809
 C         3.764746         0.054194         0.739777
 C         2.385783        -0.489341         1.138562
 H         4.074065        -2.650162         1.233393
 H         2.654786        -3.187597         0.147850
 H         4.191763        -2.897786        -0.493442
 H        -0.520873         0.334662        -0.452748
 H         0.089330        -1.256237        -0.034139
 H        -0.132721        -0.192141         1.280749
 H         1.884920         2.156114        -0.865145
 H         2.015035         2.175010         0.917867
 H         4.735706        -0.081078         1.293891
 H         1.963509        -0.876745         2.162498
