19
Iteration:  4730
 C         3.975367        -2.479198         0.034415
 C         3.123189        -1.180773         0.045521
 O         2.405281        -0.562867        -1.051243
 C         1.505182         0.198136        -0.070634
 C         0.000764         0.304638        -0.433646
 C         2.254978         1.539534         0.167980
 O         3.663919         1.139199         0.687269
 C         3.530566        -0.161346         1.078063
 C         2.024443        -0.719625         1.032730
 H         3.492741        -3.403847        -0.469095
 H         4.968828        -2.194656        -0.210118
 H         4.040207        -2.833771         1.046039
 H        -0.146752         1.399007        -0.359713
 H        -0.326013        -0.106775        -1.528133
 H        -0.552892        -0.221888         0.329894
 H         2.501364         2.096779        -0.758314
 H         1.603467         2.153204         0.848633
 H         4.016038        -0.479897         1.961027
 H         1.375195        -1.053784         1.821462
