19
Iteration:  1626charge 0 multiplicity 1
 C         3.818678        -2.518953        -0.124020
 C         3.182630        -1.213337         0.141352
 O         2.157126        -0.694406        -0.960116
 C         1.537300         0.129388         0.126213
 C         0.028690        -0.018757         0.035332
 C         2.262281         1.507080        -0.134068
 O         3.607924         1.328983         0.355741
 C         3.639024         0.069357         0.890280
 C         2.336921        -0.471883         1.256517
 H         4.345546        -2.983949         0.733874
 H         2.889427        -3.160462        -0.361889
 H         4.533604        -2.351148        -0.933557
 H        -0.260076        -0.238847        -1.008061
 H        -0.359669        -0.863206         0.613267
 H        -0.474850         0.900193         0.358051
 H         2.163002         1.953696        -1.158525
 H         1.807223         2.220037         0.552302
 H         4.594250        -0.008161         1.514412
 H         1.902033        -0.818229         2.169937
