19
Iteration:  3920
 C         3.573604        -2.625311         0.244229
 C         3.171498        -1.126287         0.225819
 O         2.478264        -0.660790        -1.006117
 C         1.646368         0.242456        -0.130353
 C         0.212104         0.209847        -0.418253
 C         2.248595         1.528890        -0.052082
 O         3.605977         1.223277         0.428593
 C         3.510724        -0.028011         1.091354
 C         2.114895        -0.574434         1.172083
 H         2.844095        -3.215938        -0.440912
 H         4.545817        -2.914614        -0.124926
 H         3.520358        -2.794185         1.376205
 H        -0.053992        -0.668720        -1.159693
 H        -0.300013         0.051287         0.527965
 H        -0.263263         1.122824        -0.786612
 H         2.290172         2.065691        -1.048716
 H         1.712041         2.001350         0.828095
 H         4.273674        -0.266293         1.905725
 H         1.410276        -1.306132         1.677237
