19
Iteration:  4430
 C         3.542776        -2.604268         0.043606
 C         3.155266        -1.158851         0.162612
 O         2.461322        -0.588074        -0.970480
 C         1.601097         0.238488        -0.068125
 C         0.172129         0.032429        -0.608911
 C         2.363486         1.541110         0.053267
 O         3.574518         1.245934         0.592847
 C         3.495888        -0.037072         1.140976
 C         2.158143        -0.513566         1.179303
 H         2.692177        -3.274969         0.168995
 H         4.194403        -2.833519        -0.879586
 H         4.181047        -2.817736         0.992831
 H        -0.482433         0.902552        -0.171446
 H         0.292854        -0.005801        -1.680631
 H        -0.395502        -0.808790        -0.114287
 H         2.355102         2.025995        -0.933602
 H         1.681337         1.970537         0.854904
 H         4.248764        -0.230483         1.920762
 H         1.848661        -0.830620         2.165011
