19
Iteration:  1031
 C         4.010927        -2.504094         0.148194
 C         3.132117        -1.217331         0.155561
 O         2.005207        -0.916835        -0.871330
 C         1.518850         0.119697         0.151915
 C         0.040812         0.259804         0.272307
 C         2.151920         1.394521        -0.284457
 O         3.558664         1.376023         0.091990
 C         3.750960         0.052058         0.626324
 C         2.397298        -0.437181         1.253037
 H         4.585118        -2.665680         1.086828
 H         3.389884        -3.373990        -0.002680
 H         4.739196        -2.369549        -0.652448
 H        -0.334452         1.115268        -0.305157
 H        -0.597290        -0.566860        -0.131501
 H        -0.255113         0.382530         1.314465
 H         2.042790         1.406484        -1.348023
 H         1.611390         2.166859         0.170041
 H         4.568571        -0.177222         1.192505
 H         2.232018        -0.683356         2.368787
