19
Iteration:  3356
 C         3.615679        -2.633528        -0.069701
 C         3.096344        -1.229009         0.254442
 O         2.623006        -0.546544        -0.858195
 C         1.584571         0.208877        -0.061468
 C         0.193994         0.131561        -0.571053
 C         2.208004         1.565244         0.062459
 O         3.536095         1.229086         0.519657
 C         3.487547        -0.087627         1.117359
 C         2.137770        -0.527429         1.190509
 H         2.882015        -3.075326        -0.691903
 H         4.572982        -2.549589        -0.619276
 H         3.713740        -3.225395         0.833043
 H         0.188530         0.117340        -1.665234
 H        -0.127865        -0.881648        -0.187666
 H        -0.319332         0.924163        -0.070288
 H         2.287595         1.971018        -0.911113
 H         1.716229         2.199183         0.839895
 H         4.233448        -0.108406         1.911331
 H         1.477205        -0.829694         2.027418
