19
Iteration:  3301charge 0 multiplicity 1
 C         3.738466        -2.547396         0.174693
 C         3.057085        -1.246180         0.093968
 O         2.426799        -0.561295        -1.066925
 C         1.576625         0.197407        -0.129598
 C         0.159973         0.178765        -0.454515
 C         2.361523         1.507712        -0.052535
 O         3.515275         1.257067         0.779089
 C         3.497838        -0.100185         1.077108
 C         2.151410        -0.610640         1.101557
 H         2.996905        -3.338802         0.328079
 H         4.362966        -2.631773        -0.708532
 H         4.360183        -2.587842         1.053543
 H         0.127485         0.967536        -1.169901
 H        -0.106041        -0.844423        -0.855099
 H        -0.456984         0.514758         0.348575
 H         2.624548         1.829591        -1.037137
 H         1.691448         2.323525         0.404155
 H         4.354858        -0.399426         1.735045
 H         1.504345        -0.922310         1.895702
