19
Iteration:  4435charge 0 multiplicity 1
 C         3.532367        -2.632343         0.088838
 C         3.185290        -1.151448         0.161813
 O         2.450725        -0.599466        -1.004165
 C         1.670936         0.220491        -0.087007
 C         0.188162         0.079769        -0.547715
 C         2.293317         1.539372         0.075794
 O         3.591218         1.279898         0.600210
 C         3.526123        -0.004807         1.123526
 C         2.112220        -0.564490         1.141329
 H         2.663358        -3.369125         0.077576
 H         4.031009        -2.918316        -0.791808
 H         4.190083        -2.757633         0.919537
 H        -0.423145         0.917195        -0.385273
 H         0.299429        -0.199728        -1.632905
 H        -0.326675        -0.772684        -0.141376
 H         2.304852         2.148562        -0.837721
 H         1.630044         1.917568         0.898261
 H         4.255097        -0.235807         1.879411
 H         1.661589        -0.851444         2.113378
