19
Iteration:   587
 C         3.707267        -2.461905        -0.034784
 C         3.094392        -1.129157         0.155496
 O         2.155985        -0.770561        -0.808131
 C         1.517941         0.172842         0.174771
 C         0.058618        -0.094344         0.274295
 C         2.233116         1.495281        -0.235052
 O         3.609022         1.245080         0.010629
 C         3.730109         0.088624         0.750247
 C         2.434824        -0.397316         1.287465
 H         4.628387        -2.563797         0.601864
 H         3.049789        -3.217360         0.276135
 H         4.096821        -2.430363        -1.093803
 H        -0.361249        -0.189985        -0.741243
 H        -0.208350        -1.096449         0.645019
 H        -0.456753         0.762761         0.749006
 H         2.196785         1.782095        -1.312887
 H         1.888742         2.247650         0.434709
 H         4.503551         0.196468         1.548656
 H         2.152076        -0.577958         2.283119
