19
Iteration:  2910
 C         3.882966        -2.470855         0.115987
 C         3.033083        -1.215422         0.115724
 O         2.414690        -0.647776        -1.016367
 C         1.527254         0.272017        -0.126549
 C         0.011268         0.226078        -0.428614
 C         2.397468         1.528093         0.019427
 O         3.633202         1.233747         0.666308
 C         3.504735        -0.189369         1.081208
 C         2.035365        -0.621977         1.090937
 H         3.491549        -3.463006         0.199025
 H         4.558944        -2.432669        -0.807407
 H         4.554178        -2.456714         0.967528
 H        -0.092383        -0.337343        -1.359811
 H        -0.601732        -0.273367         0.421100
 H        -0.356274         1.237403        -0.531946
 H         2.674350         1.881288        -1.043313
 H         1.840045         2.281965         0.650792
 H         4.191743        -0.589102         1.863365
 H         1.316333        -0.971197         1.938316
