19
Iteration:   417charge 0 multiplicity 1
 C         3.949023        -2.446269        -0.118246
 C         3.134278        -1.223640         0.221821
 O         2.045199        -0.902332        -0.701439
 C         1.551674         0.080173         0.128355
 C         0.077746         0.287620         0.121639
 C         2.108597         1.438578        -0.304547
 O         3.509628         1.346291         0.146309
 C         3.694937         0.012933         0.740406
 C         2.438925        -0.543227         1.397154
 H         4.814870        -2.534748         0.537934
 H         3.428953        -3.389512        -0.418165
 H         4.407807        -2.148411        -1.015549
 H        -0.108070         0.224467        -0.951360
 H        -0.546419        -0.473376         0.600931
 H        -0.137292         1.276955         0.536833
 H         2.184726         1.647949        -1.363457
 H         1.714363         2.257392         0.229984
 H         4.770066         0.028762         1.189841
 H         2.165113        -0.682732         2.411004
