19
Iteration:  1518charge 0 multiplicity 1
 C         3.700799        -2.554439         0.017626
 C         3.183707        -1.146186         0.176445
 O         2.220062        -0.698933        -0.865694
 C         1.466740         0.165053         0.122126
 C         0.066825        -0.146528         0.151612
 C         2.210267         1.554034        -0.077623
 O         3.597875         1.290451         0.046018
 C         3.714408         0.081929         0.798054
 C         2.356279        -0.388528         1.224070
 H         3.220637        -3.034798        -0.835085
 H         4.814931        -2.679839         0.008391
 H         3.439995        -3.184408         0.851388
 H        -0.499694         0.628900         0.773450
 H        -0.214915         0.049515        -0.928407
 H        -0.219923        -1.213548         0.280554
 H         2.117841         1.877292        -1.146807
 H         2.074054         2.426219         0.606274
 H         4.625520         0.082371         1.435945
 H         2.211592        -0.600663         2.221746
