19
Iteration:   210
 C         3.923229        -2.515910        -0.156447
 C         3.129360        -1.236367         0.148000
 O         2.073783        -0.841593        -0.723340
 C         1.527608         0.174959         0.258488
 C        -0.011332         0.113960         0.092083
 C         2.156159         1.449515        -0.218071
 O         3.631775         1.352076         0.114967
 C         3.710359         0.081907         0.755916
 C         2.404430        -0.458327         1.340101
 H         4.768613        -2.618271         0.576927
 H         3.214386        -3.377505        -0.017779
 H         4.245768        -2.445600        -1.135134
 H        -0.195732        -0.192709        -0.879391
 H        -0.485400        -0.669139         0.661025
 H        -0.521807         1.014159         0.356663
 H         2.217408         1.487461        -1.290916
 H         1.703317         2.343702         0.222669
 H         4.609122        -0.084307         1.265321
 H         2.120562        -0.349537         2.444716
