19
Iteration:   883charge 0 multiplicity 1
 C         3.731119        -2.621438         0.060038
 C         3.244898        -1.172175         0.152727
 O         2.084405        -0.843452        -0.835089
 C         1.529581         0.129012         0.211449
 C         0.087117         0.091381         0.208066
 C         2.091340         1.475215        -0.175380
 O         3.527739         1.354512         0.007778
 C         3.795663         0.152324         0.670101
 C         2.552033        -0.407129         1.312314
 H         3.875130        -2.974932         1.103135
 H         2.990647        -3.182804        -0.455623
 H         4.634415        -2.787848        -0.543623
 H        -0.224240         0.507964        -0.774774
 H        -0.291163        -0.911468         0.112687
 H        -0.515646         0.630667         0.989437
 H         1.857003         1.593937        -1.247923
 H         1.635613         2.261135         0.338454
 H         4.703854         0.119055         1.181958
 H         2.206239        -0.602892         2.363119
