19
Iteration:  1201charge 0 multiplicity 1
 C         3.916399        -2.321588         0.019161
 C         3.061993        -1.219965         0.260665
 O         2.199111        -0.925661        -0.798757
 C         1.570521         0.109424         0.161107
 C        -0.011849         0.195123         0.266024
 C         2.220580         1.387791        -0.345310
 O         3.588113         1.197320        -0.049320
 C         3.686749         0.122629         0.783640
 C         2.315356        -0.418665         1.280117
 H         4.879068        -2.205173         0.457159
 H         3.465423        -3.323553         0.464704
 H         4.110441        -2.405290        -1.070524
 H        -0.495506         0.971340        -0.356649
 H        -0.514156        -0.787620         0.290037
 H        -0.277911         0.642029         1.259726
 H         2.025570         1.362022        -1.452267
 H         1.852432         2.279205         0.129307
 H         4.366447         0.174668         1.581481
 H         1.922146        -0.728012         2.259263
