19
Iteration:  1590
 C         3.951031        -2.504587        -0.078711
 C         3.159463        -1.177740         0.168739
 O         2.134292        -0.861731        -0.856389
 C         1.535732         0.072965         0.148000
 C        -0.001545         0.271728         0.017575
 C         2.185016         1.449738        -0.161408
 O         3.505907         1.336650         0.296678
 C         3.700474         0.088236         0.818934
 C         2.361817        -0.590526         1.280428
 H         3.815115        -3.426772         0.444597
 H         3.678923        -2.629443        -1.145149
 H         5.030470        -2.373775        -0.309609
 H        -0.068523         1.013494        -0.753547
 H        -0.546422        -0.627786        -0.256693
 H        -0.468426         0.678639         0.875940
 H         2.268325         1.755419        -1.208689
 H         1.630329         2.177612         0.485890
 H         4.629282         0.098503         1.352090
 H         2.122919        -0.994050         2.262771
