19
Iteration:   302charge 0 multiplicity 1
 C         3.674595        -2.600474         0.065618
 C         3.129555        -1.115943         0.124069
 O         2.134404        -0.813635        -0.825490
 C         1.552077         0.072545         0.228501
 C         0.062337        -0.045196         0.176152
 C         2.118916         1.494718        -0.191994
 O         3.610590         1.403244         0.044694
 C         3.757448         0.120933         0.646460
 C         2.528724        -0.329431         1.338758
 H         4.116298        -3.019353         0.948968
 H         2.871058        -3.245395        -0.199784
 H         4.493854        -2.741911        -0.742708
 H        -0.314240         0.767873        -0.499416
 H        -0.199203        -0.825345        -0.556713
 H        -0.369068        -0.218329         1.173859
 H         1.949652         1.600024        -1.282182
 H         1.729503         2.296957         0.425185
 H         4.651735         0.044332         1.345307
 H         2.313245        -0.656629         2.332648
