19
Iteration:  2959charge 0 multiplicity 1
 C         3.561021        -2.613789        -0.112882
 C         3.084430        -1.185751         0.302029
 O         2.583870        -0.580780        -0.923684
 C         1.638503         0.144699        -0.031680
 C         0.169932         0.114304        -0.584077
 C         2.200226         1.593596         0.046267
 O         3.573948         1.254969         0.511192
 C         3.565396         0.007546         1.154612
 C         2.135157        -0.602822         1.271419
 H         2.639896        -3.300403        -0.490016
 H         4.230587        -2.603703        -0.966775
 H         3.991652        -3.329545         0.691742
 H         0.244095        -0.405811        -1.547612
 H        -0.549520        -0.409946        -0.046442
 H        -0.137216         1.193886        -0.574623
 H         2.339640         1.998167        -0.958441
 H         1.660855         2.152688         0.810115
 H         4.151718         0.006362         2.089021
 H         1.706695        -0.981318         2.165782
