19
Iteration:  1777charge 0 multiplicity 1
 C         3.939850        -2.326661        -0.156149
 C         3.005625        -1.163522         0.096776
 O         2.253610        -0.707421        -0.996944
 C         1.553716         0.158822         0.014695
 C         0.057032         0.090594        -0.014217
 C         2.325723         1.499062        -0.065043
 O         3.586686         1.202889         0.400273
 C         3.571446        -0.052930         1.061684
 C         2.195958        -0.611274         1.247087
 H         3.338221        -3.048136        -0.675705
 H         4.634829        -1.851272        -0.936387
 H         4.472348        -2.651313         0.744842
 H        -0.348685        -0.647110         0.703614
 H        -0.216570         1.101568         0.346128
 H        -0.472413        -0.024130        -0.965430
 H         2.302367         1.777514        -1.153504
 H         1.972854         2.311734         0.601335
 H         4.441147        -0.410966         1.617848
 H         1.682949        -1.024837         2.155469
