19
Iteration:   375charge 0 multiplicity 1
 C         3.701386        -2.544127         0.132146
 C         3.146730        -1.127946         0.075673
 O         2.131437        -0.678312        -0.903724
 C         1.551892         0.146786         0.071277
 C         0.079874        -0.145841         0.229755
 C         2.218607         1.566813        -0.108790
 O         3.628324         1.289927         0.055903
 C         3.681912         0.094565         0.729779
 C         2.408258        -0.399443         1.210472
 H         4.533191        -2.641862         0.831183
 H         2.916527        -3.248493         0.655015
 H         4.097509        -2.944873        -0.829562
 H        -0.435941        -0.173756        -0.734910
 H        -0.013388        -1.158362         0.625985
 H        -0.363893         0.605117         0.901965
 H         2.041147         2.101949        -1.055572
 H         1.746986         2.125648         0.755980
 H         4.705179        -0.080721         1.284275
 H         2.198065        -0.856115         2.137759
