19
Iteration:   346
 C         3.423571        -2.653223         0.182145
 C         3.153426        -1.140098         0.160779
 O         2.389209        -0.637895        -0.990806
 C         1.605485         0.162927         0.191441
 C         0.136700        -0.246518         0.244338
 C         2.025319         1.601825        -0.064128
 O         3.576226         1.346075        -0.049360
 C         3.749515         0.106886         0.717592
 C         2.491602        -0.345137         1.185425
 H         4.229247        -2.880255         0.864106
 H         2.556368        -3.242344         0.296634
 H         3.852782        -3.109933        -0.787144
 H        -0.249572         0.326808        -0.636312
 H        -0.024010        -1.301913        -0.001008
 H        -0.174780        -0.071346         1.287184
 H         1.773166         2.035291        -1.049686
 H         1.638748         2.151991         0.818833
 H         4.669731         0.104580         1.283469
 H         2.308421        -0.576168         2.245120
