19
Iteration:   244charge 0 multiplicity 1
 C         4.082238        -2.255294        -0.048869
 C         3.049343        -1.186932         0.155326
 O         2.063153        -0.920108        -0.806632
 C         1.491082         0.048859         0.022134
 C        -0.000445         0.343511         0.273748
 C         2.178075         1.360212        -0.223827
 O         3.623777         1.140166         0.031250
 C         3.663866         0.058790         0.872770
 C         2.345042        -0.522175         1.252885
 H         4.885492        -2.139543         0.669861
 H         3.667702        -3.301842         0.078258
 H         4.532119        -2.241091        -1.009959
 H        -0.517573         0.858059        -0.488054
 H        -0.414260        -0.565930         0.652000
 H        -0.093350         1.074587         1.033646
 H         2.073396         1.803324        -1.224040
 H         1.742030         2.080815         0.474681
 H         4.546387        -0.185059         1.404511
 H         1.914741        -0.491947         2.262104
