19
Iteration:   833
 C         4.004589        -2.303504        -0.076870
 C         3.062645        -1.235720         0.221633
 O         2.059871        -0.843550        -0.746126
 C         1.510122         0.182878         0.131691
 C         0.072959         0.139986         0.321813
 C         2.314042         1.396860        -0.314477
 O         3.556821         1.101704        -0.058848
 C         3.612848         0.044274         0.828413
 C         2.348198        -0.352403         1.271721
 H         4.482951        -2.563545         0.827190
 H         3.585581        -3.206833        -0.732207
 H         4.744975        -1.877509        -0.775572
 H        -0.576228         0.815524        -0.284047
 H        -0.298514        -0.906992         0.247587
 H        -0.126785         0.465534         1.330230
 H         2.036093         1.589381        -1.363832
 H         1.991408         2.362763         0.278930
 H         4.420386        -0.188150         1.684565
 H         1.807063        -0.506167         2.159473
