19
Iteration:  3066
 C         3.829377        -2.473460        -0.015066
 C         3.090256        -1.175638         0.297721
 O         2.496542        -0.653568        -0.924570
 C         1.584806         0.077836        -0.097166
 C         0.188129         0.373823        -0.520979
 C         2.288226         1.442128        -0.107971
 O         3.590270         1.167450         0.587215
 C         3.406165        -0.107035         1.223620
 C         1.983022        -0.573473         1.166006
 H         3.258522        -3.323075        -0.335056
 H         4.498005        -2.240329        -0.810048
 H         4.545184        -2.813665         0.756655
 H         0.007520         1.441514        -0.817168
 H        -0.084995        -0.394481        -1.205210
 H        -0.555980         0.200553         0.299271
 H         2.264183         1.827683        -1.198157
 H         1.709840         2.255228         0.365605
 H         4.055128        -0.329093         2.122834
 H         1.525612        -1.027176         1.987287
