19
Iteration:  2312
 C         4.012109        -2.349931        -0.324798
 C         3.057810        -1.281938         0.109593
 O         2.439443        -0.578928        -1.043360
 C         1.603261         0.179823        -0.139644
 C         0.077882         0.328820        -0.372947
 C         2.358293         1.466800         0.087139
 O         3.455527         1.200358         0.926748
 C         3.409425        -0.157472         1.228496
 C         2.094924        -0.788105         1.092811
 H         3.529106        -3.037880        -1.126468
 H         4.923409        -2.039431        -0.906878
 H         4.132733        -2.979686         0.596526
 H        -0.118973         0.388389        -1.416427
 H        -0.529714        -0.465353        -0.009556
 H        -0.308664         1.264777         0.027038
 H         2.428651         2.082264        -0.771847
 H         1.797305         2.235746         0.698477
 H         4.167606        -0.326875         1.924058
 H         1.342492        -1.251691         1.811052
