19
Iteration:  3960charge 0 multiplicity 1
 C         3.778109        -2.589125         0.229088
 C         3.003646        -1.260692         0.169705
 O         2.426812        -0.693198        -0.997587
 C         1.573911         0.208388        -0.110325
 C         0.089610         0.238665        -0.433994
 C         2.332395         1.566483        -0.093839
 O         3.707455         1.263445         0.574093
 C         3.516222        -0.103887         1.034115
 C         1.993979        -0.505202         1.158313
 H         3.161511        -3.355814        -0.182507
 H         4.872637        -2.499554        -0.174846
 H         3.848761        -2.967063         1.203690
 H         0.001469        -0.698242        -0.919380
 H        -0.474488         0.273666         0.520356
 H        -0.332975         0.956220        -1.128137
 H         2.659256         1.989206        -1.054473
 H         1.910372         2.342781         0.521200
 H         4.294229        -0.151667         1.777214
 H         1.507377        -1.073274         1.888009
