19
Iteration:  4033
 C         3.658240        -2.572746         0.070964
 C         3.076909        -1.185486         0.227022
 O         2.434190        -0.646576        -0.953238
 C         1.627849         0.194707        -0.076298
 C         0.208825         0.197812        -0.531406
 C         2.303794         1.483331         0.020948
 O         3.637477         1.278997         0.522439
 C         3.445689        -0.089614         1.106150
 C         2.069207        -0.549239         1.194216
 H         2.978852        -3.412491         0.400282
 H         4.115708        -2.697142        -0.939632
 H         4.548672        -2.595246         0.764043
 H        -0.433370        -0.327168         0.126002
 H        -0.080695         1.273459        -0.791878
 H         0.145714        -0.399833        -1.488979
 H         2.538104         1.830460        -0.987016
 H         1.833036         2.243811         0.729395
 H         4.048481        -0.318133         1.983939
 H         1.524229        -0.864347         2.073433
