19
Iteration:  2270
 C         3.850548        -2.478333        -0.370459
 C         3.107434        -1.152938         0.105125
 O         2.410703        -0.506162        -0.970540
 C         1.529705         0.192596         0.049987
 C         0.147709         0.248236        -0.651191
 C         2.207633         1.491200         0.273412
 O         3.532555         1.190108         0.825075
 C         3.550512        -0.106452         1.146693
 C         2.143441        -0.808140         1.181162
 H         3.720870        -2.626524        -1.495181
 H         4.876720        -2.158165        -0.177035
 H         3.678229        -3.387023         0.215932
 H         0.222469        -0.015111        -1.710511
 H        -0.415843        -0.527022        -0.096866
 H        -0.506827         1.114960        -0.525180
 H         2.434070         2.106883        -0.579598
 H         1.518045         2.086569         0.965455
 H         4.273185        -0.262793         1.933291
 H         1.710782        -1.312885         2.109232
