19
Iteration:  1892
 C         3.726186        -2.528086        -0.115367
 C         3.071767        -1.139733         0.089521
 O         2.352264        -0.526406        -1.031235
 C         1.580951         0.202421        -0.023703
 C         0.135097        -0.124071        -0.136786
 C         2.257806         1.594576         0.000170
 O         3.649068         1.275478         0.517358
 C         3.587723        -0.012015         1.057040
 C         2.160531        -0.615055         1.213260
 H         4.783507        -2.613290         0.273165
 H         3.111037        -3.355881         0.229428
 H         3.628637        -2.680300        -1.212121
 H        -0.101484        -1.153922        -0.322375
 H        -0.293606         0.237565         0.810397
 H        -0.476981         0.474511        -0.821492
 H         2.271956         1.941021        -1.058611
 H         1.730595         2.399014         0.623132
 H         4.474246        -0.374456         1.655319
 H         1.663594        -0.792237         2.147097
