19
Iteration:  3333
 C         3.592976        -2.626837        -0.039825
 C         3.138423        -1.203017         0.219516
 O         2.413672        -0.697558        -0.988766
 C         1.616693         0.144600        -0.080744
 C         0.123023         0.081631        -0.601802
 C         2.313048         1.589368         0.067418
 O         3.631738         1.373114         0.688649
 C         3.509716         0.033886         1.183435
 C         2.184296        -0.583286         1.152960
 H         2.678599        -3.144481        -0.419185
 H         4.382627        -2.641677        -0.754374
 H         3.855278        -3.135631         0.847556
 H         0.289451         0.537544        -1.570720
 H        -0.289519        -0.992380        -0.755537
 H        -0.483698         0.732946         0.022835
 H         2.593095         2.043201        -0.842831
 H         1.584122         2.127451         0.692646
 H         4.358743        -0.064740         1.879245
 H         1.622233        -0.908076         2.013969
