19
Iteration:  4976charge 0 multiplicity 1
 C         3.831545        -2.475156        -0.219765
 C         3.087037        -1.161281         0.058507
 O         2.489814        -0.413505        -1.020604
 C         1.585167         0.217323        -0.022205
 C         0.149892         0.186264        -0.514570
 C         2.275799         1.478911         0.246142
 O         3.506449         1.166125         0.816055
 C         3.443277        -0.176622         1.197532
 C         2.081542        -0.760467         1.021930
 H         3.345688        -3.192560        -0.880768
 H         4.710938        -2.192392        -0.873392
 H         4.360186        -2.827175         0.652681
 H        -0.550289         0.413975         0.325877
 H         0.033505         0.971900        -1.156575
 H        -0.151820        -0.863893        -0.830376
 H         2.403268         1.964350        -0.764351
 H         1.824057         2.346692         0.818616
 H         4.065511        -0.585970         1.973008
 H         1.615025        -1.186276         1.921320
