19
Iteration:  4892charge 0 multiplicity 1
 C         3.907973        -2.510428        -0.105984
 C         3.115758        -1.231010         0.046810
 O         2.423623        -0.450618        -1.082474
 C         1.542103         0.139170        -0.024227
 C         0.082519         0.272284        -0.504750
 C         2.237496         1.528836         0.226835
 O         3.515091         1.226436         0.833437
 C         3.589620        -0.188368         1.071597
 C         2.087986        -0.765785         1.043777
 H         3.271946        -3.389327        -0.556849
 H         4.910871        -2.219519        -0.482258
 H         4.149031        -2.897369         0.904761
 H        -0.504050        -0.682840        -0.473561
 H        -0.435644         1.285071        -0.018114
 H         0.129095         0.597436        -1.563850
 H         2.296849         2.182668        -0.690217
 H         1.737834         2.086996         1.042059
 H         4.090534        -0.391807         2.024727
 H         1.621902        -1.324964         1.866580
