19
Iteration:  2987charge 0 multiplicity 1
 C         3.502373        -2.644179         0.018382
 C         3.187228        -1.140886         0.191041
 O         2.557275        -0.582087        -0.951613
 C         1.648459         0.172871        -0.055788
 C         0.127928         0.122434        -0.571592
 C         2.203836         1.577307         0.068948
 O         3.562358         1.302241         0.596765
 C         3.604257        -0.029434         1.100570
 C         2.181249        -0.621094         1.172440
 H         2.703507        -3.025941        -0.488397
 H         4.334913        -3.091852        -0.568185
 H         3.546494        -3.155557         0.945584
 H         0.206240        -0.114010        -1.652315
 H        -0.425459        -0.829030        -0.166203
 H        -0.387529         1.015779        -0.260893
 H         2.320474         2.101226        -0.929138
 H         1.598449         2.101275         0.843549
 H         4.176870        -0.086113         1.989655
 H         1.611013        -1.077586         1.994136
