19
Iteration:  2461charge 0 multiplicity 1
 C         3.795068        -2.455916        -0.154417
 C         3.056569        -1.183945         0.039132
 O         2.480987        -0.458870        -1.085389
 C         1.645306         0.227066        -0.047229
 C         0.109267         0.054845        -0.407921
 C         2.331322         1.606773         0.216619
 O         3.548725         1.206648         0.779800
 C         3.478550        -0.210007         1.170640
 C         2.039406        -0.666094         1.005418
 H         3.412354        -3.185722        -0.751837
 H         4.788581        -2.102656        -0.440558
 H         3.919320        -2.926368         0.811925
 H        -0.487080         0.197238         0.506977
 H        -0.427600         0.469688        -1.247472
 H         0.052256        -1.073931        -0.591376
 H         2.508221         2.173727        -0.747865
 H         1.751969         2.153831         0.918423
 H         4.223517        -0.410372         1.886533
 H         1.368924        -1.129562         1.793696
