19
Iteration:   393charge 0 multiplicity 1
 C         3.830731        -2.477966         0.025736
 C         3.124515        -1.158220         0.102660
 O         2.058156        -0.898143        -0.890142
 C         1.510389         0.149663         0.159128
 C        -0.061594         0.042906         0.160010
 C         2.164877         1.496533        -0.116864
 O         3.687634         1.356629         0.113968
 C         3.771430         0.054966         0.770262
 C         2.448694        -0.426962         1.235782
 H         4.735111        -2.429185         0.700293
 H         3.146453        -3.286781         0.150372
 H         4.223578        -2.697528        -0.930280
 H        -0.314962        -0.102373        -0.888992
 H        -0.362721        -0.883757         0.700123
 H        -0.504660         0.891316         0.717772
 H         2.044557         1.729313        -1.172497
 H         1.994630         2.318938         0.524632
 H         4.613549         0.044724         1.413267
 H         2.067049        -0.499257         2.263028
