19
Iteration:   545charge 0 multiplicity 1
 C         3.368723        -2.618485         0.170347
 C         3.198749        -1.197978         0.125487
 O         2.230754        -0.759314        -0.862589
 C         1.650743         0.095128         0.170580
 C         0.171466        -0.168797         0.062743
 C         2.068900         1.583445         0.049297
 O         3.456119         1.415058        -0.017785
 C         3.846375         0.174057         0.602900
 C         2.616815        -0.395482         1.221931
 H         4.325201        -2.967571         0.797787
 H         2.557491        -3.203867         0.615938
 H         3.734518        -2.927209        -0.878580
 H        -0.188317        -0.181562        -0.981933
 H        -0.030134        -1.115899         0.603233
 H        -0.303944         0.693607         0.597359
 H         1.724785         2.157329        -0.883245
 H         1.860547         2.219247         0.964449
 H         4.786991         0.354741         1.248003
 H         2.529040        -0.583696         2.255464
