19
Iteration:  3888
 C         3.568379        -2.715149         0.072218
 C         3.078307        -1.218482         0.236890
 O         2.466742        -0.692879        -0.905562
 C         1.650534         0.222155        -0.038574
 C         0.079372         0.101355        -0.610888
 C         2.262750         1.581498        -0.051658
 O         3.619239         1.276019         0.540443
 C         3.612726        -0.027616         1.057887
 C         2.178569        -0.374903         1.270933
 H         2.683358        -3.383780        -0.148808
 H         4.296954        -2.718687        -0.639679
 H         4.046736        -3.165620         0.989340
 H        -0.064330        -0.929609        -1.157228
 H        -0.640401         0.225221         0.198611
 H        -0.250235         0.845646        -1.352146
 H         2.480212         2.088385        -1.024101
 H         1.848381         2.309860         0.689091
 H         4.345515        -0.176292         1.907327
 H         1.767209        -0.653054         2.255796
