19
Iteration:   374charge 0 multiplicity 1
 C         3.694097        -2.547097         0.134036
 C         3.135537        -1.127022         0.081087
 O         2.145691        -0.673279        -0.906059
 C         1.555900         0.153456         0.070264
 C         0.083049        -0.150637         0.226631
 C         2.220068         1.568235        -0.104723
 O         3.616996         1.291815         0.052111
 C         3.677648         0.091368         0.727096
 C         2.413728        -0.400968         1.209595
 H         4.548159        -2.630878         0.836926
 H         2.894390        -3.244468         0.633398
 H         4.068058        -2.974002        -0.789034
 H        -0.434914        -0.190343        -0.726079
 H         0.011816        -1.168225         0.634177
 H        -0.329765         0.577376         0.944994
 H         2.034513         2.090502        -1.046676
 H         1.795682         2.133723         0.755678
 H         4.699599        -0.050729         1.260813
 H         2.194251        -0.882925         2.121426
