19
Iteration:  1175
 C         3.984410        -2.505736         0.163593
 C         3.096728        -1.254004         0.162909
 O         2.105587        -0.875958        -0.927453
 C         1.561945         0.129852         0.043628
 C         0.033053         0.128379         0.306929
 C         2.155978         1.530153        -0.246220
 O         3.607599         1.206564        -0.022053
 C         3.629528         0.121458         0.777823
 C         2.342595        -0.350790         1.272186
 H         5.082642        -2.365423         0.388529
 H         3.636103        -3.306363         0.766834
 H         4.005328        -2.836258        -0.907491
 H        -0.638456         0.295576        -0.598326
 H        -0.331179        -0.732307         0.883505
 H        -0.194465         1.036644         0.970574
 H         2.094657         1.839516        -1.269033
 H         1.764643         2.249096         0.468151
 H         4.493961         0.161638         1.553230
 H         2.065831        -0.637573         2.255603
