19
Iteration:    32
 C         4.016868        -2.315600        -0.058667
 C         2.975808        -1.269432         0.205938
 O         1.988947        -0.876236        -0.760290
 C         1.511376         0.140278         0.114412
 C        -0.067060         0.074275         0.150541
 C         2.362120         1.514059        -0.338346
 O         3.740497         1.290179         0.096146
 C         3.607324        -0.018563         0.840590
 C         2.317335        -0.474994         1.378987
 H         4.872077        -2.341950         0.547192
 H         3.620439        -3.296220         0.028247
 H         4.373630        -2.128835        -1.126556
 H        -0.379911         1.114358         0.434845
 H        -0.300568        -0.237042        -0.850053
 H        -0.455971        -0.524807         0.953995
 H         2.347256         1.562346        -1.444571
 H         2.057206         2.488970         0.009709
 H         4.538064        -0.199508         1.324156
 H         2.007609        -0.276691         2.337945
