19
Iteration:  2897charge 0 multiplicity 1
 C         3.908784        -2.471008         0.133897
 C         3.059997        -1.235676         0.184009
 O         2.416676        -0.640337        -1.058333
 C         1.621167         0.159683        -0.084477
 C         0.105996         0.366150        -0.377049
 C         2.323879         1.530797        -0.035653
 O         3.568061         1.157025         0.671611
 C         3.489937        -0.082625         1.071401
 C         1.973966        -0.732156         1.043499
 H         3.228888        -3.235124        -0.031180
 H         4.553046        -2.439267        -0.743566
 H         4.546547        -2.364919         0.997590
 H        -0.251631        -0.244172        -1.261153
 H        -0.414930        -0.173126         0.475893
 H        -0.349241         1.413273        -0.483881
 H         2.549085         1.875826        -1.057079
 H         1.796443         2.442801         0.426570
 H         4.337700        -0.163525         1.831293
 H         1.491965        -1.213392         1.920709
