19
Iteration:  2751
 C         3.754709        -2.533283        -0.041294
 C         3.148958        -1.211442         0.108922
 O         2.436358        -0.647397        -1.038073
 C         1.500916         0.138604        -0.030968
 C         0.110229         0.264173        -0.555375
 C         2.277643         1.537117         0.143518
 O         3.468473         1.389396         0.769145
 C         3.568381        -0.132486         1.118340
 C         2.254519        -0.738619         1.108936
 H         2.869803        -3.195573        -0.114574
 H         4.331643        -2.740077        -0.896814
 H         4.400662        -2.762383         0.767572
 H        -0.577396         0.643449         0.227514
 H         0.085077         0.926104        -1.486647
 H        -0.235257        -0.739897        -0.919260
 H         2.406711         1.896343        -0.883285
 H         1.712815         2.343487         0.776456
 H         4.510492        -0.280309         1.740866
 H         1.683198        -1.253715         1.989138
