19
Iteration:  4504
 C         3.718946        -2.466184         0.050088
 C         3.022012        -1.206550         0.150519
 O         2.482563        -0.649575        -1.005780
 C         1.540754         0.211947        -0.048237
 C         0.148255         0.216534        -0.499548
 C         2.383188         1.601004         0.004398
 O         3.608422         1.195580         0.605813
 C         3.454138        -0.086843         1.142848
 C         2.071969        -0.715248         1.188295
 H         3.312897        -3.315479        -0.536245
 H         4.681984        -2.291957        -0.580189
 H         3.983255        -2.650566         1.097498
 H         0.055393         0.856821        -1.420954
 H        -0.016767        -0.881140        -0.609241
 H        -0.574064         0.610657         0.255257
 H         2.594580         1.943128        -1.038084
 H         1.871622         2.345930         0.632115
 H         4.209853        -0.271691         1.925628
 H         1.404057        -1.144994         1.931255
