19
Iteration:   921
 C         3.541425        -2.616193         0.185022
 C         3.244181        -1.134892         0.122894
 O         2.270693        -0.755824        -0.969024
 C         1.611315         0.093903         0.085290
 C        -0.028606        -0.094620         0.250946
 C         2.066960         1.514308        -0.043684
 O         3.545873         1.347999        -0.003282
 C         3.828891         0.150740         0.660627
 C         2.533314        -0.338241         1.218447
 H         4.175163        -2.933290         1.015779
 H         2.551951        -3.119297         0.419679
 H         4.001933        -3.019463        -0.737781
 H        -0.430650        -0.249723        -0.768057
 H        -0.048070        -0.964901         0.936764
 H        -0.556757         0.722698         0.699755
 H         1.911381         2.070753        -0.970648
 H         1.839162         2.198572         0.853949
 H         4.800996         0.180254         1.267293
 H         2.173494        -0.660208         2.172315
