19
Iteration:   260
 C         4.056867        -2.332089         0.022799
 C         3.143435        -1.195198         0.139142
 O         2.082759        -0.924199        -0.941752
 C         1.482600         0.080018         0.151210
 C         0.003314         0.261750         0.345350
 C         2.257183         1.363654        -0.199102
 O         3.656816         1.218397        -0.038756
 C         3.602632         0.044962         0.794401
 C         2.219604        -0.437233         1.299202
 H         4.754489        -2.275688         0.886270
 H         3.530760        -3.260970         0.057516
 H         4.624862        -2.075793        -0.962783
 H        -0.470385         1.013640        -0.414774
 H        -0.717219        -0.582629         0.203604
 H        -0.121232         0.698243         1.408942
 H         2.092220         1.663158        -1.252837
 H         1.932633         2.168409         0.500029
 H         4.503165        -0.020469         1.479009
 H         1.890880        -0.885212         2.238902
