19
Iteration:  4387
 C         3.775941        -2.490185        -0.004405
 C         3.016008        -1.221909         0.242725
 O         2.434294        -0.701846        -0.909770
 C         1.624167         0.210546        -0.096020
 C         0.173072         0.207716        -0.497988
 C         2.379761         1.532004        -0.064750
 O         3.611109         1.176275         0.494749
 C         3.402740        -0.056883         1.182158
 C         2.048054        -0.512885         1.257767
 H         3.155638        -3.180961        -0.601835
 H         4.646858        -2.331813        -0.745457
 H         4.123413        -3.002071         0.961436
 H        -0.423331         0.074783         0.483893
 H        -0.073980         0.952688        -1.232380
 H        -0.077059        -0.755288        -1.018960
 H         2.659845         1.758196        -1.130203
 H         1.900513         2.401061         0.543901
 H         3.944169        -0.219038         2.142681
 H         1.431251        -0.716067         2.122027
