19
Iteration:  2264
 C         3.799992        -2.457358        -0.314525
 C         3.086417        -1.217128         0.070722
 O         2.427649        -0.474491        -0.977983
 C         1.516867         0.195520         0.029291
 C         0.169249         0.214170        -0.641368
 C         2.191652         1.505003         0.354016
 O         3.559061         1.207003         0.789693
 C         3.533549        -0.161086         1.157158
 C         2.159792        -0.755411         1.139572
 H         3.827630        -2.541804        -1.370725
 H         4.844424        -2.114409        -0.178101
 H         3.564183        -3.399735         0.184314
 H         0.244491        -0.102495        -1.714024
 H        -0.262708        -0.686695        -0.137209
 H        -0.608428         0.992002        -0.533286
 H         2.385071         2.231326        -0.505835
 H         1.504016         2.122517         0.931244
 H         4.382933        -0.193410         1.937010
 H         1.887248        -1.315050         1.989354
