19
Iteration:  1766charge 0 multiplicity 1
 C         3.922566        -2.310023        -0.200417
 C         3.072320        -1.206948         0.159718
 O         2.250783        -0.668907        -0.962927
 C         1.512714         0.167955        -0.003980
 C         0.006990         0.085857         0.027691
 C         2.310703         1.467156        -0.118722
 O         3.630809         1.163267         0.438487
 C         3.549121        -0.064402         0.997820
 C         2.195609        -0.529356         1.198299
 H         3.627374        -3.110818        -0.852340
 H         4.973045        -1.968010        -0.555558
 H         4.173122        -2.912877         0.705383
 H        -0.301333        -0.808325         0.629087
 H        -0.338793         0.919429         0.674402
 H        -0.481306         0.150992        -0.946426
 H         2.644200         1.889905        -1.092038
 H         1.702543         2.281112         0.405310
 H         4.379160        -0.046228         1.749777
 H         1.718817        -1.036979         2.056745
