19
Iteration:  3959charge 0 multiplicity 1
 C         3.773163        -2.592906         0.232382
 C         3.006893        -1.268410         0.171784
 O         2.436857        -0.685932        -1.000801
 C         1.564322         0.214623        -0.110201
 C         0.082557         0.234993        -0.433020
 C         2.334706         1.556139        -0.093470
 O         3.715376         1.270739         0.575899
 C         3.516791        -0.100953         1.024272
 C         1.994140        -0.512032         1.156497
 H         3.175919        -3.356299        -0.147649
 H         4.863377        -2.482810        -0.141129
 H         3.837491        -2.981185         1.199079
 H        -0.009508        -0.680333        -0.915118
 H        -0.471175         0.255518         0.542794
 H        -0.341187         0.982916        -1.125112
 H         2.621104         2.000095        -1.049884
 H         1.898983         2.348310         0.522187
 H         4.274172        -0.166956         1.760265
 H         1.496122        -1.057935         1.885452
