19
Iteration:  1262charge 0 multiplicity 1
 C         3.726912        -2.543285         0.189806
 C         3.121300        -1.199872         0.187731
 O         2.080821        -0.901096        -0.813620
 C         1.608986         0.087369         0.149199
 C        -0.021027         0.019283         0.137750
 C         2.137439         1.446268        -0.214986
 O         3.597106         1.415986        -0.072865
 C         3.805744         0.194206         0.687667
 C         2.572856        -0.371184         1.345528
 H         3.719851        -2.988444         1.191293
 H         2.965669        -3.062196        -0.319482
 H         4.675148        -2.692989        -0.366894
 H        -0.454482         0.889927        -0.336339
 H        -0.333700        -0.761413        -0.511766
 H        -0.347478        -0.186593         1.173513
 H         1.837842         1.761841        -1.210036
 H         1.633154         2.117021         0.585503
 H         4.873707         0.266140         0.996547
 H         2.205774        -0.579617         2.286864
