19
Iteration:  1066charge 0 multiplicity 1
 C         3.783004        -2.460935         0.184371
 C         3.063351        -1.099179         0.147864
 O         2.049815        -0.772882        -0.899389
 C         1.555451         0.154016         0.111804
 C         0.060383        -0.109947         0.335425
 C         2.239997         1.505658        -0.240923
 O         3.670105         1.267966        -0.083327
 C         3.720594         0.064985         0.733649
 C         2.363214        -0.374922         1.251033
 H         3.995509        -2.763740         1.273934
 H         3.175520        -3.199872        -0.291925
 H         4.736727        -2.524142        -0.410184
 H        -0.528148         0.439849        -0.410302
 H        -0.008825        -1.200219         0.364133
 H        -0.195713         0.358925         1.313635
 H         2.062147         1.788279        -1.267121
 H         1.900346         2.326104         0.420392
 H         4.703062         0.019028         1.252144
 H         2.248943        -0.724919         2.289080
