19
Iteration:  1147charge 0 multiplicity 1
 C         3.734450        -2.527897         0.209132
 C         3.144131        -1.164992         0.113576
 O         2.118052        -0.837610        -0.810913
 C         1.594882         0.139988         0.145362
 C        -0.000616        -0.003292         0.134075
 C         2.112843         1.527303        -0.177494
 O         3.619624         1.377274         0.019177
 C         3.779803         0.114158         0.592959
 C         2.481754        -0.431968         1.324552
 H         4.731096        -2.671736         0.530238
 H         3.108982        -3.239179         0.876918
 H         3.707723        -2.988786        -0.792437
 H        -0.268292        -0.428697        -0.815904
 H        -0.399042        -0.749935         0.828029
 H        -0.526014         0.880598         0.451622
 H         1.982785         1.807481        -1.264970
 H         1.641820         2.271607         0.553655
 H         4.752524         0.015510         0.944860
 H         2.346261        -0.770890         2.347795
