19
Iteration:  2850
 C         3.760189        -2.569045        -0.005831
 C         3.102024        -1.208417         0.233583
 O         2.397624        -0.694546        -0.955891
 C         1.633537         0.219367        -0.092655
 C         0.113126         0.199458        -0.518547
 C         2.305611         1.579362         0.051653
 O         3.549148         1.315155         0.650458
 C         3.548266        -0.096541         1.071558
 C         2.120327        -0.656942         1.174287
 H         3.093988        -2.924752        -0.813525
 H         4.624361        -2.364435        -0.568499
 H         4.051940        -3.296408         0.754681
 H        -0.219164        -0.678480        -1.118534
 H        -0.523802         0.360244         0.329782
 H        -0.076097         1.078080        -1.224736
 H         2.504616         2.081313        -0.857875
 H         1.615575         2.254631         0.611291
 H         4.167227        -0.411080         1.879624
 H         1.667965        -1.040941         2.049801
