19
Iteration:  3736
 C         3.580332        -2.536342        -0.013891
 C         3.064422        -1.220455         0.229454
 O         2.600713        -0.600648        -0.956755
 C         1.635106         0.198805        -0.113307
 C         0.182731         0.031989        -0.410829
 C         2.272294         1.572451        -0.035019
 O         3.621531         1.241612         0.528009
 C         3.465262        -0.108120         1.114014
 C         2.054880        -0.483229         1.212444
 H         2.899957        -2.999821        -0.824239
 H         4.492756        -2.590424        -0.520739
 H         3.562923        -3.147870         0.941217
 H        -0.337019         0.991788        -0.078124
 H        -0.044013        -0.191663        -1.423449
 H        -0.116958        -0.760076         0.260488
 H         2.526433         2.056520        -0.957301
 H         1.856276         2.317367         0.672687
 H         4.112239        -0.207275         1.983406
 H         1.490430        -0.588789         2.125433
