19
Iteration:  3704
 C         3.549645        -2.594258         0.073765
 C         3.099633        -1.194145         0.182542
 O         2.444396        -0.526754        -0.963258
 C         1.592909         0.229133        -0.121653
 C         0.129470        -0.007122        -0.525960
 C         2.320021         1.622830         0.018351
 O         3.672090         1.289199         0.572105
 C         3.555852        -0.045266         1.092435
 C         2.155696        -0.640096         1.180509
 H         2.617194        -3.184984        -0.299295
 H         4.440132        -2.733577        -0.519273
 H         3.814218        -2.948360         1.133867
 H        -0.332513         1.008597        -0.578949
 H         0.063867        -0.606534        -1.365605
 H        -0.315948        -0.429669         0.342497
 H         2.490505         2.043253        -0.938579
 H         1.935018         2.300645         0.784930
 H         3.984022        -0.342110         2.033865
 H         1.659338        -1.154597         1.976736
