19
Iteration:  2614
 C         3.549555        -2.571887        -0.087943
 C         3.269720        -1.130525         0.030969
 O         2.567920        -0.517439        -1.039523
 C         1.589328         0.202873        -0.098027
 C         0.151443         0.047544        -0.458278
 C         2.137822         1.530772         0.238404
 O         3.509137         1.309023         0.837250
 C         3.569901        -0.082039         1.111437
 C         2.199865        -0.681561         0.992559
 H         2.697599        -3.050646        -0.645911
 H         4.420858        -2.675229        -0.849995
 H         3.899485        -2.999065         0.902288
 H         0.197761        -0.452041        -1.417058
 H        -0.423828        -0.576943         0.180155
 H        -0.384588         1.049039        -0.592701
 H         2.407625         2.270592        -0.614156
 H         1.516615         2.172656         0.958801
 H         4.301855        -0.332433         1.973268
 H         1.580822        -1.249684         1.713412
