19
Iteration:  4131
 C         3.789687        -2.616243        -0.104310
 C         3.100903        -1.195792         0.299397
 O         2.302770        -0.669413        -0.941163
 C         1.610936         0.153555        -0.056486
 C         0.140199         0.162783        -0.560540
 C         2.392055         1.594382         0.013643
 O         3.669453         1.211763         0.565655
 C         3.452815        -0.058056         1.201612
 C         2.021609        -0.429926         1.254294
 H         3.262701        -2.890562        -1.053286
 H         4.788802        -2.494633        -0.554929
 H         3.852185        -3.370322         0.674485
 H        -0.413885         1.035691        -0.529338
 H         0.250528        -0.373272        -1.580948
 H        -0.476118        -0.534316         0.051542
 H         2.561027         1.645490        -1.045272
 H         1.833890         2.306398         0.557414
 H         4.319810        -0.163651         1.914883
 H         1.415903        -0.569902         2.128249
