19
Iteration:   554charge 0 multiplicity 1
 C         3.453297        -2.687222         0.130182
 C         3.172323        -1.206942         0.148258
 O         2.245808        -0.768002        -0.847217
 C         1.529090         0.220412         0.204736
 C         0.129709        -0.181781         0.087119
 C         2.105643         1.606510        -0.029992
 O         3.497884         1.416809        -0.006733
 C         3.861751         0.173882         0.601500
 C         2.647389        -0.390077         1.286775
 H         4.383332        -2.828523         0.749301
 H         2.584916        -3.257998         0.390523
 H         3.536004        -3.031033        -0.960086
 H        -0.035834        -0.300376        -0.996275
 H        -0.057746        -1.141180         0.630503
 H        -0.645036         0.505546         0.500376
 H         1.816303         2.239835        -0.897815
 H         1.676147         2.069592         0.830166
 H         4.815432         0.257069         1.136904
 H         2.289701        -0.707189         2.234022
