19
Iteration:   696charge 0 multiplicity 1
 C         3.701824        -2.603489        -0.022660
 C         3.149837        -1.173967         0.213368
 O         2.180423        -0.754636        -0.807281
 C         1.534376         0.133859         0.109075
 C         0.003908        -0.113458         0.279152
 C         2.178259         1.555670        -0.171231
 O         3.618415         1.344413        -0.052015
 C         3.740749         0.121557         0.738278
 C         2.435796        -0.342854         1.298167
 H         4.283472        -2.938775         0.886990
 H         2.942528        -3.284566        -0.277868
 H         4.366747        -2.688112        -0.922264
 H        -0.585529         0.400605        -0.533974
 H        -0.202350        -1.229123         0.084320
 H        -0.347523         0.133551         1.314731
 H         2.088557         1.966116        -1.227968
 H         1.842617         2.431650         0.534702
 H         4.714477        -0.008465         1.347613
 H         2.225335        -0.546963         2.310669
