19
Iteration:  3695charge 0 multiplicity 1
 C         3.575728        -2.651342         0.093389
 C         3.105168        -1.168395         0.136908
 O         2.467695        -0.573107        -0.941802
 C         1.589714         0.240068        -0.046927
 C         0.161381         0.079277        -0.543731
 C         2.298202         1.638953         0.051711
 O         3.625854         1.284467         0.606936
 C         3.570455        -0.073435         1.005858
 C         2.152092        -0.649173         1.164664
 H         2.776983        -3.365707        -0.030420
 H         4.458769        -2.815857        -0.588263
 H         3.914774        -2.912658         1.161156
 H        -0.364179         0.997495        -0.882536
 H        -0.039379        -0.543843        -1.332121
 H        -0.459049        -0.358204         0.219859
 H         2.289172         2.070029        -0.885141
 H         1.673302         2.358049         0.611607
 H         4.261874        -0.365899         1.806973
 H         1.617633        -0.834596         2.049834
