19
Iteration:  2733charge 0 multiplicity 1
 C         3.879334        -2.512287        -0.071215
 C         3.131762        -1.160635         0.059701
 O         2.332162        -0.607912        -1.000727
 C         1.582540         0.161556        -0.024883
 C         0.118832         0.242691        -0.531863
 C         2.246606         1.510099         0.056022
 O         3.592002         1.227987         0.826673
 C         3.499781        -0.108319         1.082064
 C         2.095644        -0.669583         1.171959
 H         3.296305        -3.426018        -0.287180
 H         4.575975        -2.475688        -0.952460
 H         4.625251        -2.599136         0.777835
 H        -0.491734         1.055343        -0.112464
 H         0.199038         0.467368        -1.562104
 H        -0.475048        -0.732271        -0.374511
 H         2.567979         1.918261        -0.884841
 H         1.565948         2.230271         0.500483
 H         4.157974        -0.172431         1.966011
 H         1.584351        -1.154729         1.938516
