19
Iteration:   937charge 0 multiplicity 1
 C         3.571943        -2.543007         0.161942
 C         3.145319        -1.141377         0.053581
 O         2.203433        -0.706823        -0.894420
 C         1.498742         0.181404         0.082938
 C         0.075842        -0.255942         0.243446
 C         2.212516         1.573751        -0.081599
 O         3.664180         1.331012        -0.061274
 C         3.748197         0.090161         0.743558
 C         2.422561        -0.346795         1.247891
 H         4.571472        -2.556414         0.753300
 H         2.824324        -3.072525         0.724324
 H         3.864345        -2.941094        -0.864225
 H        -0.345646        -0.655623        -0.688828
 H        -0.064159        -1.081317         0.939499
 H        -0.435545         0.679133         0.618928
 H         1.968846         2.088653        -1.035853
 H         1.865448         2.139173         0.830143
 H         4.610224        -0.095861         1.363177
 H         2.207053        -0.586574         2.315991
