19
Iteration:  3838charge 0 multiplicity 1
 C         3.744539        -2.535455         0.091054
 C         3.039071        -1.201190         0.300143
 O         2.463843        -0.664394        -0.973263
 C         1.643010         0.209584        -0.164599
 C         0.068554         0.228703        -0.426786
 C         2.336068         1.466849        -0.090947
 O         3.630191         1.193003         0.492797
 C         3.501598        -0.083692         1.169282
 C         2.038770        -0.517551         1.176894
 H         3.171037        -3.355695         0.457014
 H         4.202571        -2.588085        -1.008065
 H         4.639021        -2.616643         0.766090
 H        -0.479269        -0.501892         0.142885
 H        -0.358540         1.219868        -0.168771
 H        -0.192442         0.120590        -1.505347
 H         2.619128         1.984047        -0.993578
 H         1.926409         2.273353         0.531579
 H         4.250170        -0.380374         1.944653
 H         1.310858        -0.828345         1.973805
