19
Iteration:   742
 C         3.518100        -2.615972         0.142910
 C         3.209905        -1.162870         0.051385
 O         2.192133        -0.651802        -0.879479
 C         1.566648         0.191079         0.132122
 C         0.070674        -0.270593         0.209598
 C         2.099710         1.590853        -0.095648
 O         3.643504         1.367835         0.021602
 C         3.803970         0.095062         0.712912
 C         2.510769        -0.379911         1.217150
 H         4.499928        -2.820774         0.628673
 H         2.699299        -3.166775         0.594748
 H         3.493772        -3.015838        -0.866736
 H        -0.342165        -0.448403        -0.814003
 H        -0.035727        -1.196738         0.783257
 H        -0.542864         0.512752         0.757826
 H         1.879006         2.128889        -1.068028
 H         1.735850         2.283273         0.766333
 H         4.675385         0.133613         1.298941
 H         2.264358        -0.633063         2.291865
