19
Iteration:  3015
 C         3.655983        -2.583827         0.174056
 C         2.999173        -1.154873         0.079899
 O         2.422764        -0.592392        -1.088380
 C         1.678247         0.252037        -0.123235
 C         0.184809         0.058863        -0.474643
 C         2.327775         1.557955         0.082036
 O         3.613244         1.273237         0.688760
 C         3.522498        -0.078366         1.069154
 C         2.124201        -0.569495         1.103048
 H         3.036925        -3.452593        -0.393104
 H         4.665868        -2.846523        -0.201744
 H         3.760063        -2.827683         1.279841
 H        -0.002983         0.443148        -1.487795
 H         0.036316        -1.007517        -0.485326
 H        -0.546328         0.524032         0.239385
 H         2.406429         2.154171        -0.806857
 H         1.633075         2.133438         0.753769
 H         4.279877        -0.391685         1.853672
 H         1.298014        -0.806106         1.829730
