19
Iteration:  4980charge 0 multiplicity 1
 C         3.802643        -2.464791        -0.197178
 C         3.086436        -1.142565         0.048655
 O         2.487980        -0.392444        -1.072693
 C         1.571684         0.191749         0.004252
 C         0.171996         0.171964        -0.517812
 C         2.265559         1.497115         0.260022
 O         3.523519         1.194682         0.816942
 C         3.463830        -0.196419         1.200766
 C         2.082994        -0.807136         1.022794
 H         3.276047        -3.351608        -0.802723
 H         4.694222        -2.216001        -0.815021
 H         4.353632        -2.779702         0.721749
 H        -0.506630         0.447520         0.288063
 H         0.032561         0.990790        -1.359316
 H        -0.167946        -0.798446        -0.707673
 H         2.330834         1.984243        -0.724569
 H         1.770170         2.252523         0.851677
 H         4.138693        -0.602397         1.979252
 H         1.601268        -1.162146         1.924754
