19
Iteration:  2545
 C         3.875807        -2.408755        -0.274282
 C         3.075735        -1.176278         0.062400
 O         2.346839        -0.631046        -0.995944
 C         1.566889         0.194679         0.016404
 C         0.153777         0.179924        -0.638944
 C         2.252395         1.526786         0.187765
 O         3.612307         1.220348         0.838949
 C         3.496937        -0.120422         1.211024
 C         2.135773        -0.667070         1.176285
 H         3.219517        -3.394669        -0.536055
 H         4.443872        -2.241179        -1.232784
 H         4.576994        -2.464469         0.599881
 H        -0.414394        -0.590250        -0.074041
 H        -0.469428         1.124073        -0.469781
 H         0.184125        -0.085769        -1.671864
 H         2.153157         2.127847        -0.679685
 H         1.536825         1.997059         0.949341
 H         4.212135        -0.555414         1.828311
 H         1.574430        -1.096404         2.038676
