19
Iteration:  1192charge 0 multiplicity 1
 C         3.939604        -2.345567         0.052000
 C         3.110557        -1.143641         0.260676
 O         2.179834        -0.885724        -0.804392
 C         1.503162         0.122650         0.035570
 C         0.050676         0.217397         0.312492
 C         2.209565         1.377187        -0.335130
 O         3.574669         1.211723        -0.088703
 C         3.654001         0.061556         0.848965
 C         2.284057        -0.475171         1.277395
 H         4.942089        -2.173433         0.469024
 H         3.587845        -3.254021         0.632436
 H         4.066644        -2.617480        -0.986421
 H        -0.546181         0.596866        -0.493379
 H        -0.404457        -0.779591         0.473793
 H         0.077389         0.688042         1.255353
 H         2.018169         1.683303        -1.398774
 H         1.910466         2.230605         0.356860
 H         4.566380        -0.167606         1.358291
 H         1.731856        -0.608947         2.293087
