19
Iteration:   592charge 0 multiplicity 1
 C         3.761200        -2.408871        -0.055522
 C         3.055250        -1.122558         0.173369
 O         2.172091        -0.809462        -0.820134
 C         1.553354         0.191770         0.139910
 C         0.047771        -0.042803         0.307247
 C         2.214788         1.461574        -0.261172
 O         3.597196         1.221615         0.013731
 C         3.729751         0.084002         0.788627
 C         2.398357        -0.404449         1.283981
 H         4.627286        -2.538569         0.612430
 H         3.064596        -3.296133         0.187743
 H         4.118883        -2.460060        -1.072377
 H        -0.320514        -0.002788        -0.739954
 H        -0.117069        -1.032791         0.747365
 H        -0.525339         0.729436         0.828343
 H         2.156325         1.774814        -1.300823
 H         1.870424         2.321727         0.416537
 H         4.583565         0.101532         1.463625
 H         2.151915        -0.702718         2.341276
