19
Iteration:  2565
 C         3.792544        -2.457596        -0.251876
 C         3.108184        -1.211528         0.179458
 O         2.485983        -0.478851        -1.001174
 C         1.600049         0.241522        -0.081241
 C         0.149276        -0.023875        -0.514995
 C         2.299421         1.606999         0.278536
 O         3.572045         1.216691         0.760260
 C         3.472839        -0.153464         1.134729
 C         2.026422        -0.666492         1.096504
 H         2.915218        -3.179427        -0.349212
 H         4.121224        -2.379389        -1.271928
 H         4.611205        -2.733435         0.414776
 H        -0.284789        -1.059542        -0.377148
 H        -0.512480         0.826938        -0.077848
 H         0.066833         0.171626        -1.572535
 H         2.436590         2.128167        -0.641541
 H         1.793136         2.283501         0.972359
 H         4.157573        -0.188214         1.934527
 H         1.436934        -1.103838         1.855488
