19
Iteration:  1207charge 0 multiplicity 1
 C         3.935175        -2.396823         0.020969
 C         3.064270        -1.216956         0.258936
 O         2.174817        -0.930117        -0.802953
 C         1.512072         0.110601         0.179507
 C        -0.028511         0.189521         0.255786
 C         2.200124         1.394064        -0.354164
 O         3.615815         1.212485        -0.032536
 C         3.684892         0.117004         0.783583
 C         2.368322        -0.390931         1.318481
 H         4.916106        -2.212094         0.530970
 H         3.465596        -3.311800         0.171622
 H         4.022110        -2.308765        -1.081071
 H        -0.354506         1.003269        -0.434492
 H        -0.510235        -0.766338         0.031809
 H        -0.370613         0.558039         1.254044
 H         2.110832         1.343715        -1.429239
 H         1.730654         2.381881        -0.017549
 H         4.463952         0.383981         1.582515
 H         2.084845        -0.687095         2.304647
