19
Iteration:   606
 C         3.933846        -2.406216        -0.057575
 C         3.090323        -1.218006         0.239668
 O         2.120508        -0.853809        -0.881056
 C         1.521760         0.128809         0.104465
 C         0.055414         0.156058         0.311351
 C         2.177759         1.466771        -0.275844
 O         3.610941         1.255348        -0.006196
 C         3.680530         0.051252         0.864554
 C         2.343963        -0.429234         1.336021
 H         4.732056        -2.515031         0.607637
 H         3.347641        -3.340919        -0.118946
 H         4.369838        -2.113611        -1.037574
 H        -0.674986         0.208070        -0.487380
 H        -0.182934        -0.885085         0.654284
 H        -0.098418         0.856772         1.143156
 H         1.980751         1.488341        -1.340112
 H         1.751735         2.388545         0.272288
 H         4.669199        -0.198512         1.079526
 H         1.801933        -0.715638         2.252524
