19
Iteration:  3432charge 0 multiplicity 1
 C         3.786292        -2.571369         0.023052
 C         3.055115        -1.217521         0.144289
 O         2.394605        -0.710192        -0.984661
 C         1.628014         0.153071        -0.122903
 C         0.222392         0.342209        -0.425113
 C         2.322121         1.457857        -0.062135
 O         3.469502         1.338914         0.733316
 C         3.480125        -0.045314         1.146463
 C         2.116502        -0.668746         1.105167
 H         3.222019        -3.440337        -0.201149
 H         4.568450        -2.604400        -0.726556
 H         4.332665        -2.648541         0.967678
 H         0.368948         0.904033        -1.394458
 H        -0.246572        -0.627423        -0.771990
 H        -0.300169         0.879403         0.366222
 H         2.547610         1.811579        -1.035645
 H         1.724904         2.215069         0.406928
 H         4.243561        -0.264780         1.910516
 H         1.429870        -1.091974         1.915817
