19
Iteration:  2241
 C         3.769961        -2.544461        -0.257950
 C         3.153240        -1.095094         0.045758
 O         2.542879        -0.383790        -1.052523
 C         1.580427         0.194766         0.012366
 C         0.202665         0.013275        -0.521855
 C         2.194908         1.569181         0.405046
 O         3.573561         1.180486         0.718611
 C         3.485265        -0.126618         1.071889
 C         1.999692        -0.725552         1.108962
 H         3.923420        -2.729733        -1.307492
 H         4.735471        -2.595516         0.190131
 H         3.106758        -3.234887         0.218617
 H         0.077355         0.263176        -1.613779
 H        -0.267643        -0.983722        -0.273295
 H        -0.466832         0.715790         0.010585
 H         2.265358         2.563126        -0.118755
 H         1.617888         1.825596         1.284031
 H         4.303942        -0.344797         1.854300
 H         1.264231        -1.050262         1.843522
