19
Iteration:  3326
 C         3.577537        -2.569352         0.000866
 C         3.134257        -1.179155         0.136627
 O         2.404869        -0.748991        -0.978862
 C         1.572028         0.133945        -0.114188
 C         0.163153         0.100598        -0.587567
 C         2.354570         1.583480         0.064499
 O         3.596401         1.364418         0.731312
 C         3.509002         0.035553         1.157462
 C         2.213653        -0.599561         1.164831
 H         2.690104        -3.110054        -0.221374
 H         4.414419        -2.561519        -0.800030
 H         3.919619        -3.049687         0.982167
 H         0.213916         0.667515        -1.553044
 H        -0.053082        -0.902716        -0.696435
 H        -0.514111         0.624721         0.072326
 H         2.426027         2.012007        -0.969748
 H         1.849264         2.357444         0.753292
 H         4.317309        -0.274016         1.772451
 H         1.479693        -1.079259         1.874144
