19
Iteration:  4958
 C         3.940452        -2.399048        -0.392021
 C         3.130508        -1.220670         0.191459
 O         2.523811        -0.552932        -0.983466
 C         1.574007         0.189875        -0.064706
 C         0.092469         0.236232        -0.486585
 C         2.310605         1.599667         0.102564
 O         3.540198         1.184699         0.836481
 C         3.436955        -0.265255         1.208226
 C         1.944782        -0.696844         1.178949
 H         3.227432        -3.041553        -1.124259
 H         4.920172        -2.164217        -0.853424
 H         4.252753        -3.089925         0.435489
 H        -0.539583        -0.048518         0.364235
 H        -0.314333         1.259271        -1.006327
 H        -0.152730        -0.633059        -1.050508
 H         2.510905         2.240565        -0.783023
 H         1.674700         2.222950         0.703790
 H         4.113437        -0.486399         2.061777
 H         1.179670        -1.100613         1.878318
