19
Iteration:   936charge 0 multiplicity 1
 C         3.569785        -2.545455         0.166147
 C         3.151885        -1.139729         0.045371
 O         2.210185        -0.710138        -0.899415
 C         1.504383         0.174606         0.083023
 C         0.066893        -0.247465         0.240066
 C         2.205601         1.573882        -0.080749
 O         3.664089         1.334147        -0.061461
 C         3.755814         0.081764         0.747049
 C         2.428123        -0.335055         1.248746
 H         4.574146        -2.566588         0.789973
 H         2.801652        -3.074699         0.686014
 H         3.843685        -2.967696        -0.866348
 H        -0.383669        -0.657410        -0.656335
 H        -0.077057        -1.078030         0.940988
 H        -0.446292         0.666956         0.630325
 H         1.932831         2.083937        -1.016052
 H         1.825646         2.132530         0.861044
 H         4.568803        -0.077411         1.366489
 H         2.233122        -0.593064         2.327661
