19
Iteration:  2736charge 0 multiplicity 1
 C         3.857249        -2.538048        -0.061880
 C         3.140971        -1.159806         0.053193
 O         2.350164        -0.621801        -1.021872
 C         1.580889         0.172288        -0.004318
 C         0.092209         0.241764        -0.542921
 C         2.233757         1.514931         0.066097
 O         3.584600         1.239443         0.833016
 C         3.523239        -0.059396         1.085335
 C         2.110802        -0.694468         1.172771
 H         3.261783        -3.455408        -0.196632
 H         4.544124        -2.446183        -1.003661
 H         4.565301        -2.661879         0.811134
 H        -0.545499         1.000388        -0.085642
 H         0.224372         0.597158        -1.579256
 H        -0.416382        -0.679591        -0.480001
 H         2.530166         1.927946        -0.954161
 H         1.597232         2.243768         0.510808
 H         4.160699        -0.300282         1.915264
 H         1.699307        -1.240098         1.990707
