19
Iteration:  2571
 C         3.745157        -2.480607        -0.239818
 C         3.111337        -1.206956         0.164133
 O         2.561639        -0.431663        -0.978996
 C         1.603483         0.252300        -0.051088
 C         0.157771        -0.030377        -0.506524
 C         2.263399         1.620237         0.246904
 O         3.551275         1.159148         0.744664
 C         3.497445        -0.118012         1.151168
 C         2.036260        -0.647773         1.035761
 H         2.941233        -3.193991        -0.269356
 H         4.084643        -2.394721        -1.304158
 H         4.509196        -2.804359         0.482747
 H        -0.149233        -1.038437        -0.292443
 H        -0.467859         0.496835         0.195115
 H        -0.061314         0.343763        -1.547368
 H         2.182873         2.114351        -0.793336
 H         1.679510         2.265702         0.948886
 H         4.187616        -0.408238         2.031515
 H         1.367323        -1.084633         1.814414
