19
Iteration:   625charge 0 multiplicity 1
 C         4.083061        -2.386095        -0.065391
 C         3.124888        -1.287256         0.155326
 O         2.077816        -0.934854        -0.779489
 C         1.486191         0.099574         0.119335
 C        -0.000117         0.302968         0.359662
 C         2.212239         1.413034        -0.315351
 O         3.560681         1.254790         0.071594
 C         3.653464         0.063542         0.744738
 C         2.321673        -0.451110         1.228817
 H         4.594811        -2.479940         0.883689
 H         3.613861        -3.404575        -0.443007
 H         4.782025        -2.224967        -0.868951
 H        -0.360886         0.849444        -0.561243
 H        -0.652122        -0.580554         0.525434
 H        -0.091007         0.866902         1.294882
 H         2.038740         1.649439        -1.361710
 H         1.739649         2.248303         0.305370
 H         4.335214         0.075963         1.550694
 H         2.244900        -0.594006         2.374480
