19
Iteration:  4922charge 0 multiplicity 1
 C         3.952563        -2.344959        -0.271898
 C         3.124376        -1.180372         0.135573
 O         2.358442        -0.587033        -1.021142
 C         1.579328         0.175143        -0.019541
 C         0.150188         0.291647        -0.512149
 C         2.291208         1.519403         0.083489
 O         3.501209         1.178806         0.840696
 C         3.530861        -0.229382         1.204235
 C         1.993141        -0.755447         1.162805
 H         3.488648        -2.843300        -1.173173
 H         4.958229        -1.932446        -0.647694
 H         4.012953        -3.077047         0.549229
 H        -0.536164        -0.268769         0.150113
 H        -0.248743         1.290303        -0.463044
 H         0.222350        -0.004589        -1.586481
 H         2.556187         1.980088        -0.891567
 H         1.819885         2.155378         0.810312
 H         4.161674        -0.557880         2.015042
 H         1.394704        -1.330601         1.862680
