19
Iteration:  4811charge 0 multiplicity 1
 C         3.569132        -2.472731        -0.250522
 C         3.088647        -1.187277         0.151242
 O         2.494799        -0.486637        -0.955867
 C         1.611042         0.152016         0.033169
 C         0.281102        -0.027545        -0.545952
 C         2.239289         1.580347         0.129244
 O         3.579766         1.340156         0.795956
 C         3.492101        -0.140300         1.168185
 C         2.161386        -0.669110         1.140299
 H         2.787245        -3.106855        -0.565132
 H         4.042023        -2.301754        -1.284595
 H         4.335911        -3.018382         0.416311
 H         0.384290        -0.202939        -1.680365
 H        -0.384865        -0.738384        -0.150125
 H        -0.282154         1.017048        -0.589104
 H         2.336407         1.817394        -0.944684
 H         1.618878         2.304299         0.626147
 H         4.140520        -0.521462         1.997128
 H         1.572631        -1.125211         1.959679
