19
Iteration:  4888
 C         3.865074        -2.536512        -0.077682
 C         3.137213        -1.195587         0.046052
 O         2.427757        -0.458672        -1.089118
 C         1.537057         0.178187        -0.052283
 C         0.116186         0.266423        -0.473140
 C         2.208877         1.529582         0.238867
 O         3.521828         1.232965         0.819363
 C         3.599723        -0.226397         1.091066
 C         2.084429        -0.755666         1.025789
 H         3.315875        -3.331157        -0.549037
 H         4.873320        -2.262992        -0.568089
 H         4.276176        -2.889900         0.908128
 H        -0.440260        -0.686154        -0.585485
 H        -0.342369         1.042185         0.029011
 H         0.105547         0.629179        -1.550033
 H         2.170135         2.233589        -0.601653
 H         1.593290         2.022615         1.003032
 H         4.175673        -0.363813         1.992377
 H         1.545915        -1.305716         1.772271
