19
Iteration:   908charge 0 multiplicity 1
 C         3.544489        -2.649982         0.189547
 C         3.219906        -1.187241         0.128850
 O         2.280319        -0.770107        -0.877757
 C         1.530123         0.096034         0.124278
 C         0.127106        -0.024583         0.233035
 C         2.095641         1.506508        -0.085114
 O         3.475277         1.427359        -0.018390
 C         3.821107         0.222232         0.666644
 C         2.552598        -0.496709         1.199368
 H         4.000493        -2.856127         1.082605
 H         2.559565        -3.231716        -0.036014
 H         4.106919        -2.960698        -0.662523
 H        -0.372717         0.010106        -0.788201
 H        -0.429504        -0.870310         0.649578
 H        -0.223128         0.886186         0.743716
 H         1.721579         1.909003        -1.061083
 H         1.585076         2.081402         0.705750
 H         4.936843         0.278171         1.102679
 H         2.387243        -0.757804         2.216929
