19
Iteration:  1436charge 0 multiplicity 1
 C         3.823168        -2.466285         0.144456
 C         3.124642        -1.204096         0.101623
 O         2.113361        -0.758941        -0.907052
 C         1.488313         0.168329         0.093671
 C         0.018114         0.005942         0.238719
 C         2.173738         1.486897        -0.161490
 O         3.654962         1.259440         0.021560
 C         3.735954         0.058745         0.734017
 C         2.375260        -0.430157         1.272323
 H         4.926058        -2.192584        -0.059800
 H         3.877281        -2.915102         1.148451
 H         3.471550        -3.217297        -0.649303
 H        -0.203169        -0.936333         0.695290
 H        -0.219393         0.881537         0.815028
 H        -0.376908         0.035371        -0.793546
 H         1.994743         1.804723        -1.174608
 H         1.901258         2.315069         0.514890
 H         4.651598         0.024561         1.404132
 H         1.855949        -0.648064         2.280453
