19
Iteration:  4332
 C         3.822262        -2.559552         0.284203
 C         3.089415        -1.166433         0.072896
 O         2.362073        -0.664184        -1.021501
 C         1.574758         0.195235        -0.071108
 C         0.179051         0.342842        -0.443950
 C         2.282218         1.523186        -0.058843
 O         3.502004         1.199055         0.557661
 C         3.561743        -0.135474         1.080693
 C         2.157973        -0.611307         1.120902
 H         3.106354        -3.281125        -0.070110
 H         4.922732        -2.590342        -0.092180
 H         3.864663        -3.005503         1.337549
 H        -0.652304        -0.028460         0.287634
 H         0.053096         1.403282        -0.631934
 H         0.074184        -0.313781        -1.328130
 H         2.323374         2.019998        -1.071230
 H         1.676869         2.252907         0.639575
 H         4.348394        -0.535447         1.756132
 H         1.496878        -0.947286         1.886158
