19
Iteration:  4077
 C         3.645973        -2.695708         0.217310
 C         3.128427        -1.199336         0.047927
 O         2.498481        -0.555631        -1.039253
 C         1.615580         0.163301        -0.094714
 C         0.165713         0.170034        -0.451395
 C         2.292591         1.582918         0.058139
 O         3.612814         1.273905         0.605737
 C         3.493305        -0.073231         1.061996
 C         2.088510        -0.523157         1.073841
 H         2.741052        -3.338120         0.332172
 H         4.395532        -3.055505        -0.548621
 H         4.176219        -2.875332         1.168727
 H        -0.388663         0.453043         0.399686
 H         0.018169         0.817912        -1.409973
 H        -0.228936        -0.873295        -0.620041
 H         2.210509         2.047353        -0.929270
 H         1.619981         2.059396         0.843099
 H         4.095051        -0.408835         1.934100
 H         1.479100        -0.813220         1.916460
