19
Iteration:  4647
 C         3.562570        -2.596628        -0.071196
 C         3.118876        -1.172629         0.143631
 O         2.541551        -0.475650        -0.935401
 C         1.655004         0.220698        -0.098476
 C         0.182376         0.001883        -0.518506
 C         2.266908         1.591714         0.156102
 O         3.546327         1.274160         0.680600
 C         3.537808        -0.114022         1.126938
 C         2.124925        -0.578042         1.066992
 H         2.707131        -3.222620        -0.041445
 H         3.895567        -2.843197        -1.101325
 H         4.254420        -2.873385         0.754465
 H        -0.507291        -0.543706         0.193367
 H        -0.225028         0.913199        -0.762585
 H         0.165845        -0.711686        -1.383684
 H         2.635309         2.132793        -0.754524
 H         1.610536         2.230023         0.842476
 H         4.161811        -0.343622         1.975624
 H         1.572528        -1.141890         1.809582
