19
Iteration:  3531charge 0 multiplicity 1
 C         3.569287        -2.644894         0.098591
 C         3.157479        -1.174438         0.150264
 O         2.486510        -0.525110        -1.010314
 C         1.644432         0.158936        -0.074164
 C         0.110875         0.172220        -0.563537
 C         2.248997         1.516141         0.160133
 O         3.625214         1.268801         0.499877
 C         3.547455        -0.013970         1.139420
 C         2.123523        -0.624716         1.131841
 H         2.853338        -3.301088        -0.293514
 H         4.615940        -2.836055        -0.283180
 H         3.712386        -2.974787         1.180804
 H         0.110979         0.340189        -1.695749
 H        -0.298813        -0.801661        -0.386710
 H        -0.522659         0.883255         0.009234
 H         2.192710         2.237579        -0.604960
 H         1.597070         1.954964         0.946561
 H         4.395523        -0.252339         1.843047
 H         1.788984        -1.216605         2.049352
