19
Iteration:  1949charge 0 multiplicity 1
 C         3.997111        -2.488358        -0.122300
 C         3.114528        -1.205673         0.082939
 O         2.264911        -0.769100        -0.955486
 C         1.542909         0.133901         0.043154
 C         0.049158         0.374764        -0.254962
 C         2.197518         1.455094         0.062572
 O         3.471429         1.266547         0.515452
 C         3.675767        -0.048929         1.001303
 C         2.239870        -0.664320         1.214623
 H         4.683680        -2.298276        -0.950605
 H         4.494454        -2.670727         0.853458
 H         3.367023        -3.254287        -0.597248
 H        -0.250977        -0.198473        -1.163625
 H        -0.755031         0.154631         0.506565
 H        -0.058731         1.430025        -0.534778
 H         2.274939         1.735192        -0.994734
 H         1.662204         2.244601         0.736868
 H         4.287162        -0.066445         1.851035
 H         1.756392        -1.126404         2.121780
