19
Iteration:    59
 C         3.994745        -2.301797        -0.157659
 C         3.168634        -1.144136         0.225321
 O         2.071105        -0.998373        -0.750719
 C         1.535902         0.118853         0.106646
 C        -0.016974         0.326477         0.136421
 C         2.193257         1.277802        -0.323657
 O         3.583128         1.226055         0.124615
 C         3.698300         0.032063         0.955053
 C         2.329139        -0.385440         1.339568
 H         4.976745        -2.605550         0.343312
 H         3.258779        -3.173949        -0.280484
 H         4.251464        -2.146931        -1.181114
 H        -0.158356         1.395566        -0.017403
 H        -0.442763        -0.219084        -0.742461
 H        -0.441292        -0.120025         1.070732
 H         2.196661         1.328381        -1.416070
 H         1.790217         2.222367         0.106399
 H         4.581354         0.048666         1.630950
 H         1.725151        -0.874839         2.237371
