19
Iteration:   534charge 0 multiplicity 1
 C         3.439546        -2.635679         0.190427
 C         3.238393        -1.104217         0.080044
 O         2.256336        -0.741897        -0.899041
 C         1.613847         0.059641         0.099823
 C         0.184650        -0.119586         0.145868
 C         2.036537         1.496605         0.104792
 O         3.541490         1.409799        -0.078524
 C         3.790571         0.211747         0.651268
 C         2.555230        -0.416981         1.239403
 H         4.221283        -2.902906         1.056125
 H         2.412251        -2.898756         0.486305
 H         3.525404        -3.237090        -0.813340
 H        -0.145858        -0.015381        -0.914254
 H        -0.259981        -1.090753         0.429637
 H        -0.345898         0.663460         0.745750
 H         1.598915         1.922261        -0.869800
 H         1.699250         2.086846         1.023079
 H         4.815159         0.073070         1.167272
 H         2.465162        -0.582703         2.279437
