19
Iteration:  2358
 C         3.872109        -2.467164        -0.136547
 C         3.072574        -1.114807        -0.002335
 O         2.431968        -0.433955        -1.046627
 C         1.587803         0.212470        -0.082073
 C         0.098028         0.137406        -0.491679
 C         2.272237         1.572723         0.248222
 O         3.562069         1.180775         0.792231
 C         3.490945        -0.224468         1.166453
 C         2.090042        -0.757110         1.091855
 H         3.368522        -3.493088        -0.111885
 H         4.310543        -2.559637        -1.124338
 H         4.635460        -2.440757         0.647708
 H        -0.232362         0.962536        -1.139141
 H        -0.101755        -0.820248        -0.998136
 H        -0.501429         0.188971         0.377761
 H         2.560041         2.233074        -0.540537
 H         1.622332         2.234209         0.858511
 H         4.258648        -0.724920         1.874070
 H         1.420111        -1.236123         1.819606
