19
Iteration:  1528
 C         3.776823        -2.568215         0.035286
 C         3.091841        -1.138981         0.123320
 O         2.213081        -0.670679        -0.898579
 C         1.542772         0.217446         0.137430
 C         0.049940        -0.076119         0.149179
 C         2.204239         1.501960        -0.131565
 O         3.628638         1.247959         0.058007
 C         3.674843         0.068837         0.788633
 C         2.347634        -0.427724         1.303618
 H         3.385050        -3.144713        -0.796949
 H         4.839848        -2.279600        -0.289671
 H         3.731371        -3.121575         0.972685
 H        -0.686334         0.673333         0.567220
 H        -0.268678        -0.227663        -0.915358
 H        -0.044435        -1.035580         0.723496
 H         2.015776         2.000181        -1.115664
 H         1.833440         2.143448         0.704699
 H         4.477166        -0.034719         1.532848
 H         2.039620        -0.537455         2.292199
