19
Iteration:  1245
 C         3.741206        -2.492475         0.060736
 C         3.164747        -1.164339         0.196705
 O         2.044482        -1.050563        -0.675434
 C         1.480804         0.124106         0.199692
 C         0.071883         0.065471         0.098186
 C         2.154858         1.478190        -0.247266
 O         3.577693         1.406681         0.003242
 C         3.780140         0.157646         0.646957
 C         2.527876        -0.333271         1.316586
 H         4.205513        -2.954311         0.922895
 H         3.057230        -3.358318        -0.323434
 H         4.627685        -2.369051        -0.581306
 H        -0.212551         1.003451        -0.457720
 H        -0.136703        -0.835930        -0.555728
 H        -0.568187        -0.031721         0.997291
 H         2.097281         1.571369        -1.361887
 H         1.824558         2.345429         0.258827
 H         4.658880        -0.001863         1.243939
 H         2.472530        -0.498670         2.460244
