19
Iteration:  2093charge 0 multiplicity 1
 C         3.877038        -2.485933        -0.126207
 C         3.154430        -1.189768         0.032029
 O         2.434018        -0.532381        -0.949879
 C         1.531149         0.140787        -0.042634
 C         0.065998         0.178093        -0.378794
 C         2.236474         1.531819         0.213217
 O         3.568727         1.189995         0.574755
 C         3.494238        -0.137545         1.071770
 C         2.133558        -0.626789         1.167552
 H         4.023800        -3.038481         0.774863
 H         3.368497        -3.011902        -0.970789
 H         4.832487        -2.262537        -0.617189
 H        -0.586781        -0.093220         0.460654
 H        -0.263029         1.190772        -0.629559
 H        -0.198124        -0.491673        -1.228583
 H         2.302215         2.089949        -0.700379
 H         1.735099         2.085001         1.009284
 H         4.336329        -0.324186         1.809787
 H         1.542388        -0.998748         1.967447
