19
Iteration:  2442charge 0 multiplicity 1
 C         3.729093        -2.553645        -0.218136
 C         3.085260        -1.115596         0.056277
 O         2.480037        -0.381088        -1.022264
 C         1.572933         0.233070        -0.055478
 C         0.194533        -0.034226        -0.497430
 C         2.210775         1.603249         0.233707
 O         3.588555         1.220008         0.802785
 C         3.501970        -0.141440         1.101219
 C         2.138918        -0.668509         1.149272
 H         2.826746        -3.038859        -0.689711
 H         4.677730        -2.650393        -0.812865
 H         3.870465        -3.034245         0.774751
 H        -0.662541         0.526212        -0.072389
 H         0.182329         0.100665        -1.622740
 H        -0.073917        -1.166423        -0.317810
 H         2.563964         2.091659        -0.705424
 H         1.617933         2.225099         0.932448
 H         4.171776        -0.557149         1.913998
 H         1.581029        -1.183781         2.000619
