19
Iteration:  3075charge 0 multiplicity 1
 C         3.866297        -2.505511        -0.037856
 C         3.128150        -1.221837         0.261497
 O         2.444548        -0.727667        -0.877952
 C         1.597106         0.164344        -0.112492
 C         0.191919         0.367813        -0.579458
 C         2.298914         1.435001        -0.026798
 O         3.508201         1.186623         0.586127
 C         3.411315        -0.034923         1.176250
 C         2.061277        -0.596113         1.239358
 H         3.159734        -3.197098        -0.313596
 H         4.378379        -2.120134        -0.937950
 H         4.551597        -2.916692         0.687047
 H         0.151285         1.446104        -0.967993
 H        -0.236079        -0.144450        -1.517937
 H        -0.514713         0.279882         0.274804
 H         2.588705         1.543108        -1.133135
 H         1.717980         2.179504         0.506042
 H         3.943178        -0.366034         2.088720
 H         1.406525        -0.766529         2.063101
