19
Iteration:  2113
 C         3.977299        -2.357729        -0.161883
 C         3.075991        -1.226317         0.155360
 O         2.442193        -0.551062        -1.009090
 C         1.518031         0.215627         0.004025
 C         0.053637         0.274499        -0.358924
 C         2.268257         1.542783         0.154193
 O         3.601136         1.142077         0.547813
 C         3.530621        -0.154571         1.112439
 C         1.985414        -0.814578         1.132724
 H         4.744707        -2.518792         0.646565
 H         3.522898        -3.384436        -0.529360
 H         4.664374        -2.002362        -1.055600
 H        -0.586153         0.394635         0.538119
 H        -0.255776         1.077266        -1.043497
 H        -0.209269        -0.664041        -0.856100
 H         2.127121         1.981837        -0.830033
 H         1.867281         2.092300         1.016768
 H         4.009315        -0.392755         2.114741
 H         1.560761        -1.204336         2.037936
