19
Iteration:  4378
 C         3.804817        -2.494880         0.006661
 C         3.128719        -1.209210         0.276038
 O         2.409365        -0.742595        -0.987447
 C         1.632521         0.177892        -0.156092
 C         0.085477         0.233364        -0.480082
 C         2.329950         1.580978        -0.062891
 O         3.633632         1.100130         0.554119
 C         3.451212        -0.076173         1.191210
 C         2.031769        -0.463892         1.218753
 H         3.167855        -3.266229        -0.465743
 H         4.765547        -2.213470        -0.382443
 H         4.096445        -2.979736         1.004268
 H        -0.548153         0.277234         0.459948
 H        -0.137869         1.199924        -0.860075
 H        -0.256702        -0.607599        -1.125021
 H         2.499170         1.883828        -1.124676
 H         1.716600         2.404794         0.412735
 H         4.078904        -0.235210         2.081886
 H         1.410811        -0.575977         2.123335
