19
Iteration:   658
 C         3.964169        -2.394685        -0.002759
 C         3.069035        -1.252618         0.172380
 O         1.973355        -0.922919        -0.774942
 C         1.506486        -0.000582         0.193521
 C         0.032163         0.277969         0.220327
 C         2.196996         1.373210        -0.276080
 O         3.562905         1.421496         0.084923
 C         3.761083         0.124141         0.657494
 C         2.487447        -0.553700         1.293092
 H         4.233385        -2.733348         0.978586
 H         3.404861        -3.324930        -0.424159
 H         4.861663        -2.068385        -0.480441
 H        -0.185204         1.165992        -0.426132
 H        -0.599262        -0.509514        -0.192920
 H        -0.250668         0.563498         1.236305
 H         1.967510         1.444760        -1.315040
 H         1.731259         2.150420         0.319702
 H         4.725560         0.064975         1.021222
 H         2.358530        -1.027237         2.331283
