19
Iteration:  2774charge 0 multiplicity 1
 C         3.603811        -2.643938        -0.046982
 C         3.182414        -1.171572         0.167341
 O         2.535196        -0.544495        -1.065311
 C         1.608688         0.148167        -0.099590
 C         0.234433         0.150066        -0.444025
 C         2.137150         1.513920         0.110066
 O         3.513357         1.296754         0.712178
 C         3.511677        -0.002961         1.104791
 C         2.200132        -0.601025         1.095517
 H         2.708946        -3.268176        -0.201284
 H         4.260906        -2.772823        -0.837708
 H         4.180684        -2.962222         0.804580
 H        -0.373020        -0.146445         0.439306
 H        -0.115934         1.102017        -0.860314
 H         0.102726        -0.612307        -1.308335
 H         2.154373         2.154060        -0.743746
 H         1.705766         1.973344         1.062181
 H         4.189893        -0.499637         1.814937
 H         1.725153        -1.110598         1.950455
