19
Iteration:  4393charge 0 multiplicity 1
 C         3.755745        -2.502505        -0.009383
 C         2.979782        -1.246433         0.266540
 O         2.448837        -0.660741        -0.871734
 C         1.568039         0.231565        -0.041734
 C         0.220358         0.157948        -0.505214
 C         2.406925         1.488090        -0.094613
 O         3.626503         1.234957         0.490973
 C         3.431182        -0.058681         1.180153
 C         2.007710        -0.549648         1.214412
 H         3.076930        -3.160937        -0.573878
 H         4.531311        -2.302083        -0.741567
 H         4.155096        -2.952494         0.845935
 H        -0.440052         0.317936         0.318802
 H        -0.167820         0.905860        -1.268420
 H         0.153257        -0.817938        -0.962627
 H         2.564903         1.935914        -1.076591
 H         1.966069         2.270980         0.472237
 H         4.146010        -0.186716         1.982437
 H         1.422266        -0.848628         2.096086
