19
Iteration:  2948
 C         3.616680        -2.525375        -0.073446
 C         3.078741        -1.267520         0.233860
 O         2.504699        -0.643885        -0.868045
 C         1.617960         0.199287        -0.017096
 C         0.199713         0.121999        -0.566788
 C         2.293926         1.574895         0.042619
 O         3.583399         1.278685         0.525063
 C         3.526642        -0.066391         1.160680
 C         2.111457        -0.579395         1.194037
 H         2.615232        -3.108987        -0.364898
 H         4.197565        -2.321467        -0.966323
 H         4.251717        -2.990899         0.770435
 H         0.211735        -0.407601        -1.530721
 H        -0.321188        -0.439592         0.127619
 H        -0.396461         1.017022        -0.862357
 H         2.204887         2.177820        -0.856507
 H         1.772613         2.232678         0.752322
 H         4.282069        -0.158899         1.949767
 H         1.489061        -1.051083         1.905889
