19
Iteration:  4716
 C         3.930993        -2.518624        -0.037654
 C         3.090786        -1.270703         0.130556
 O         2.417320        -0.615140        -1.050587
 C         1.578241         0.191277        -0.114476
 C         0.037378         0.295112        -0.426832
 C         2.358969         1.515467         0.160754
 O         3.591340         1.282785         0.688587
 C         3.421956        -0.155908         1.116055
 C         2.052176        -0.634715         1.093884
 H         3.468449        -3.204152        -0.722778
 H         4.848610        -2.359073        -0.598533
 H         4.084178        -3.002066         0.936259
 H        -0.582994         1.160422        -0.336997
 H         0.031033         0.103725        -1.533984
 H        -0.565500        -0.454947         0.081942
 H         2.339110         2.118210        -0.754519
 H         1.874316         2.046501         1.076265
 H         4.244251        -0.399811         1.804466
 H         1.524304        -1.157011         1.889622
