19
Iteration:  4093
 C         3.588276        -2.626865         0.133798
 C         3.088300        -1.254058         0.199934
 O         2.501165        -0.565356        -1.052469
 C         1.637169         0.233515        -0.123005
 C         0.212725         0.166332        -0.447029
 C         2.256967         1.566845         0.020978
 O         3.547933         1.256269         0.571050
 C         3.546305        -0.046931         1.117167
 C         2.123022        -0.655409         1.168125
 H         2.815480        -3.337090        -0.145923
 H         4.451360        -2.668773        -0.570865
 H         3.911274        -2.920710         1.161497
 H        -0.349347         1.029837         0.051688
 H         0.075566         0.459630        -1.466577
 H        -0.150619        -0.847355        -0.378927
 H         2.492787         2.088786        -0.952104
 H         1.694199         2.407321         0.570677
 H         4.397970        -0.105495         1.767072
 H         1.496514        -1.165218         1.940994
