19
Iteration:  2801
 C         3.563680        -2.545906        -0.078637
 C         3.092105        -1.137151         0.191711
 O         2.616826        -0.475947        -0.918275
 C         1.585398         0.263421        -0.118727
 C         0.080955        -0.092387        -0.494466
 C         2.278316         1.662801         0.147632
 O         3.627823         1.199335         0.572256
 C         3.546671        -0.056699         1.111694
 C         2.090393        -0.643760         1.101490
 H         2.801628        -3.228827        -0.480429
 H         4.564262        -2.718064        -0.654974
 H         3.905735        -2.822114         0.961364
 H        -0.230653        -0.834527         0.246656
 H        -0.593791         0.775780        -0.305661
 H        -0.083936        -0.510321        -1.447105
 H         2.391578         2.408284        -0.710395
 H         1.939820         2.217977         1.000361
 H         4.171105        -0.420706         1.943391
 H         1.430269        -1.239115         1.768764
