19
Iteration:   476
 C         3.895341        -2.431276        -0.035621
 C         3.009253        -1.217712         0.153894
 O         2.045935        -0.891973        -0.824040
 C         1.536232         0.200906         0.102987
 C         0.091792         0.066485         0.309010
 C         2.303221         1.475813        -0.288508
 O         3.612642         1.249072         0.077514
 C         3.675109         0.057578         0.781118
 C         2.344829        -0.354623         1.303346
 H         4.445576        -2.663924         0.901343
 H         3.524355        -3.429262        -0.416281
 H         4.685727        -1.945333        -0.758559
 H        -0.403571         0.658066        -0.488378
 H        -0.076697        -1.010300         0.102839
 H        -0.355059         0.375458         1.275679
 H         2.116922         1.552027        -1.392407
 H         1.800043         2.363721         0.210419
 H         4.533862        -0.023936         1.347043
 H         1.960583        -0.567012         2.350386
