19
Iteration:  2657
 C         3.865590        -2.464413        -0.123025
 C         3.057630        -1.207003         0.117159
 O         2.424419        -0.580797        -0.996435
 C         1.613028         0.172827         0.013083
 C         0.156201         0.228992        -0.526416
 C         2.229464         1.549125         0.152199
 O         3.508687         1.277713         0.721235
 C         3.543657        -0.195666         1.086648
 C         2.102854        -0.686536         1.124042
 H         3.405891        -3.123853        -0.922111
 H         4.977081        -2.397764        -0.378850
 H         3.882072        -3.061312         0.849461
 H         0.231977         0.874653        -1.393542
 H        -0.205328        -0.713829        -0.830092
 H        -0.660561         0.649497         0.141232
 H         2.242202         2.079258        -0.837346
 H         1.631853         2.109162         0.882520
 H         4.170086        -0.483407         1.986360
 H         1.622883        -1.252365         1.902855
