19
Iteration:  4970
 C         3.902358        -2.445142        -0.275038
 C         3.118398        -1.224721         0.066595
 O         2.501697        -0.455126        -0.950185
 C         1.573327         0.225932        -0.069819
 C         0.113079         0.185980        -0.470855
 C         2.282853         1.526361         0.202489
 O         3.503469         1.128764         0.826898
 C         3.415307        -0.173454         1.167337
 C         2.054169        -0.687340         1.077169
 H         3.222777        -3.121989        -0.939346
 H         4.706441        -2.113338        -0.927000
 H         4.244004        -3.024842         0.623147
 H        -0.539369         0.348195         0.379965
 H        -0.079379         1.093495        -1.230537
 H        -0.039506        -0.697046        -1.068990
 H         2.598578         1.898195        -0.772374
 H         1.787103         2.264403         0.816489
 H         4.049964        -0.442744         2.037617
 H         1.501792        -1.277378         1.807653
