19
Iteration:  1338
 C         3.747061        -2.586139         0.116285
 C         3.121757        -1.154404         0.139395
 O         2.096716        -0.931701        -0.826539
 C         1.547136         0.170256         0.202754
 C         0.022742        -0.024210         0.152744
 C         2.211583         1.517455        -0.246042
 O         3.577469         1.387951         0.007554
 C         3.786180         0.185081         0.680195
 C         2.437456        -0.360283         1.335196
 H         4.266834        -2.778506         1.086108
 H         2.993657        -3.326437         0.126344
 H         4.498653        -2.729850        -0.685262
 H        -0.404853         0.384058        -0.732521
 H        -0.085920        -1.070813         0.230965
 H        -0.462202         0.416630         1.041511
 H         2.035431         1.597207        -1.302590
 H         1.820008         2.348301         0.357441
 H         4.757632        -0.013084         1.152398
 H         2.348616        -0.503030         2.360809
