19
Iteration:  3685
 C         3.616226        -2.650876         0.132541
 C         3.111718        -1.258546         0.106627
 O         2.477029        -0.609293        -0.998203
 C         1.601286         0.221886        -0.010167
 C         0.142822         0.171292        -0.533665
 C         2.252621         1.578818         0.079485
 O         3.547630         1.292704         0.611989
 C         3.591602        -0.102432         1.028530
 C         2.131792        -0.545246         1.151009
 H         2.839614        -3.322704        -0.048123
 H         4.341140        -2.879659        -0.706793
 H         4.145864        -2.810121         1.104434
 H        -0.178186         1.130996        -0.973163
 H         0.310141        -0.548212        -1.297762
 H        -0.579199        -0.179414         0.203495
 H         2.456170         1.974894        -0.879467
 H         1.738993         2.269062         0.791623
 H         4.517306        -0.162361         1.570722
 H         1.687260        -0.787443         2.078933
