19
Iteration:  1572
 C         3.999375        -2.424102        -0.112987
 C         3.171092        -1.217825         0.107198
 O         2.110571        -0.862510        -0.862699
 C         1.504184         0.076013         0.119805
 C        -0.032360         0.256387         0.041328
 C         2.159386         1.428815        -0.097848
 O         3.633463         1.336109         0.200593
 C         3.638680         0.004820         0.888160
 C         2.360066        -0.497830         1.267067
 H         3.364641        -3.184833         0.392183
 H         4.318823        -2.806856        -1.161544
 H         4.852731        -2.372366         0.560625
 H        -0.446790         1.245816        -0.320274
 H        -0.552322        -0.555462        -0.512486
 H        -0.369253         0.106117         1.104579
 H         2.026147         1.637177        -1.187971
 H         1.784133         2.226008         0.527500
 H         4.574199        -0.054937         1.528478
 H         1.982540        -0.744020         2.213477
