19
Iteration:  3577charge 0 multiplicity 1
 C         3.706887        -2.616518        -0.050437
 C         3.086126        -1.262951         0.117355
 O         2.381486        -0.623156        -0.952550
 C         1.632894         0.182413        -0.114471
 C         0.056458         0.154009        -0.548836
 C         2.361362         1.499331         0.003520
 O         3.637452         1.305349         0.674848
 C         3.525941         0.009818         1.216330
 C         2.153716        -0.573323         1.210240
 H         2.962608        -3.046023        -0.661489
 H         4.764894        -2.578482        -0.507939
 H         3.610829        -3.054747         0.964596
 H        -0.012561        -0.227382        -1.619791
 H        -0.429601        -0.535849         0.156345
 H        -0.406171         1.159362        -0.285889
 H         2.552752         2.045156        -0.953057
 H         1.682751         2.201511         0.497506
 H         4.240514        -0.053394         2.020448
 H         1.506418        -0.942206         1.948516
