19
Iteration:  2590
 C         3.618652        -2.558289        -0.178429
 C         3.139558        -1.167888         0.069219
 O         2.679277        -0.310741        -1.047139
 C         1.636305         0.214966        -0.120304
 C         0.174425        -0.027323        -0.406781
 C         2.210292         1.525496         0.193668
 O         3.525734         1.264067         0.694149
 C         3.427390        -0.173934         1.208417
 C         2.091925        -0.696246         1.153824
 H         2.698952        -3.289694        -0.374713
 H         4.204270        -2.664853        -1.166252
 H         4.316075        -2.749942         0.699381
 H         0.048729        -0.951133        -0.977759
 H        -0.479208         0.043564         0.467213
 H        -0.150750         0.806494        -1.124484
 H         2.384244         2.206846        -0.686839
 H         1.509713         2.106467         0.891919
 H         4.133751        -0.215864         2.037286
 H         1.532222        -1.338926         1.964797
