19
Iteration:  4755charge 0 multiplicity 1
 C         3.924081        -2.450301         0.045096
 C         3.041497        -1.186338         0.028462
 O         2.471601        -0.501929        -1.077922
 C         1.567040         0.205329        -0.020744
 C         0.133586         0.327942        -0.396624
 C         2.318148         1.446713         0.152350
 O         3.513513         1.189778         0.634516
 C         3.464735        -0.172296         1.079111
 C         2.031916        -0.789932         1.094199
 H         3.482647        -3.311257        -0.470009
 H         4.910572        -2.108785        -0.388658
 H         4.109411        -2.848039         1.088289
 H        -0.004498         1.295458        -1.009678
 H        -0.106474        -0.539219        -0.986380
 H        -0.462496         0.342456         0.602781
 H         2.310443         2.019557        -0.787210
 H         1.676390         1.958101         0.883131
 H         4.305659        -0.414742         1.790287
 H         1.292699        -1.376409         1.701612
