19
Iteration:  3235charge 0 multiplicity 1
 C         3.828764        -2.497452        -0.004444
 C         2.989994        -1.246193         0.234241
 O         2.423894        -0.657102        -0.904530
 C         1.615483         0.175941        -0.058582
 C         0.153508         0.259257        -0.640009
 C         2.284741         1.516931         0.001262
 O         3.602331         1.246622         0.591500
 C         3.472922        -0.093050         1.152610
 C         2.073233        -0.610836         1.222567
 H         3.195813        -3.309864        -0.384120
 H         4.577533        -2.188071        -0.706314
 H         4.308328        -2.938148         0.829887
 H         0.231267         0.656354        -1.611190
 H        -0.229622        -0.798211        -0.712260
 H        -0.510851         0.839277        -0.058666
 H         2.399587         2.030646        -0.923815
 H         1.802302         2.148563         0.823077
 H         4.262648        -0.411153         1.877393
 H         1.567806        -0.922868         2.104904
