19
Iteration:  1264
 C         3.726361        -2.541441         0.202131
 C         3.133728        -1.209354         0.174545
 O         2.099733        -0.876905        -0.809619
 C         1.576448         0.097323         0.127528
 C        -0.010780         0.016265         0.148286
 C         2.135181         1.440812        -0.200478
 O         3.588849         1.407684        -0.079598
 C         3.808472         0.193692         0.675300
 C         2.573427        -0.369204         1.347136
 H         3.697991        -3.002600         1.162696
 H         2.917572        -3.160007        -0.308052
 H         4.704792        -2.739038        -0.300723
 H        -0.463100         0.931299        -0.313601
 H        -0.349792        -0.807804        -0.504813
 H        -0.314304        -0.209295         1.226675
 H         1.888922         1.773286        -1.232162
 H         1.676002         2.100350         0.593790
 H         4.831757         0.299286         1.029011
 H         2.128227        -0.618123         2.278019
