19
Iteration:  1614
 C         3.821085        -2.524522        -0.148190
 C         3.106757        -1.137492         0.082359
 O         2.197415        -0.783415        -0.857643
 C         1.560723         0.103028         0.082842
 C         0.056448         0.093869         0.026083
 C         2.162305         1.491271        -0.119096
 O         3.548164         1.378751         0.334921
 C         3.704842         0.029078         0.892853
 C         2.350731        -0.541239         1.304671
 H         4.112036        -2.986943         0.792168
 H         3.337598        -3.281731        -0.871863
 H         4.751646        -2.388894        -0.731364
 H        -0.127280         0.232346        -1.042507
 H        -0.439237        -0.782990         0.412251
 H        -0.339483         0.972507         0.497036
 H         2.342927         1.634066        -1.216109
 H         1.608918         2.316415         0.341246
 H         4.630845        -0.148077         1.534690
 H         2.079584        -0.664452         2.303263
