19
Iteration:   560charge 0 multiplicity 1
 C         3.542140        -2.730170         0.070960
 C         3.122045        -1.150060         0.145420
 O         2.234938        -0.759291        -0.824826
 C         1.549656         0.252868         0.187060
 C         0.055889        -0.185414         0.133652
 C         2.091954         1.593819        -0.058989
 O         3.573022         1.419343        -0.018529
 C         3.847654         0.164507         0.648304
 C         2.588855        -0.380332         1.301787
 H         4.377833        -2.996542         0.693301
 H         2.591843        -3.190795         0.517739
 H         3.669023        -3.040286        -0.931137
 H        -0.022746        -0.447907        -0.935902
 H        -0.085678        -1.206088         0.479514
 H        -0.777349         0.451415         0.407094
 H         1.885481         2.071005        -1.012209
 H         1.707119         2.225842         0.856465
 H         4.873020         0.121239         1.018448
 H         2.328166        -0.723314         2.360709
