19
Iteration:  3515
 C         3.638533        -2.548103         0.150231
 C         3.039098        -1.181735         0.180160
 O         2.471130        -0.554191        -1.024144
 C         1.505549         0.194474        -0.137283
 C         0.077929         0.052187        -0.588614
 C         2.302097         1.588057         0.191496
 O         3.732339         1.235040         0.551451
 C         3.577128        -0.080744         1.083996
 C         2.138892        -0.584612         1.139472
 H         2.798730        -3.334461        -0.133830
 H         4.460167        -2.567069        -0.578749
 H         4.084478        -2.924652         1.065500
 H        -0.072624         0.669093        -1.427817
 H        -0.235624        -1.005259        -0.799108
 H        -0.597607         0.512244         0.136592
 H         2.389781         2.232998        -0.743861
 H         2.000461         2.128352         1.119600
 H         4.168804        -0.286125         1.942227
 H         1.456137        -0.992872         1.860334
