19
Iteration:  4563
 C         3.808300        -2.425784        -0.092813
 C         3.065641        -1.254231         0.277216
 O         2.404443        -0.659444        -0.902454
 C         1.596342         0.163713        -0.092980
 C         0.165397         0.323541        -0.566239
 C         2.335529         1.481589        -0.028782
 O         3.566715         1.223842         0.650511
 C         3.505201        -0.122521         1.158252
 C         2.028054        -0.655053         1.198206
 H         3.232317        -2.990572        -0.817418
 H         4.762582        -1.982053        -0.495052
 H         4.176032        -3.169133         0.655210
 H        -0.033887        -0.492925        -1.286411
 H        -0.597601         0.055499         0.183190
 H        -0.094798         1.389420        -0.780763
 H         2.541452         1.874741        -1.004926
 H         1.794457         2.244488         0.496966
 H         4.228256        -0.390645         1.942821
 H         1.447497        -1.112856         2.028434
