19
Iteration:  4943
 C         3.926833        -2.367819        -0.394287
 C         3.068604        -1.251461         0.119071
 O         2.479582        -0.650868        -0.971455
 C         1.602040         0.194063        -0.104696
 C         0.118320         0.225472        -0.478862
 C         2.330627         1.486093         0.155820
 O         3.579704         1.240964         0.830119
 C         3.345621        -0.153923         1.307091
 C         1.989639        -0.692648         1.137908
 H         3.467505        -2.740123        -1.304664
 H         4.759537        -1.686166        -0.746335
 H         4.198719        -3.221014         0.217375
 H        -0.433758        -0.060917         0.436357
 H        -0.160816         1.181540        -0.670684
 H        -0.087818        -0.247585        -1.462419
 H         2.601477         1.806771        -0.865033
 H         1.738792         2.200373         0.795974
 H         4.042228        -0.489392         2.048695
 H         1.394615        -0.873689         2.037572
