19
Iteration:  1248
 C         3.717975        -2.505690         0.076845
 C         3.158358        -1.150565         0.210004
 O         2.040564        -1.049721        -0.712003
 C         1.513864         0.109291         0.200257
 C         0.057638         0.054241         0.100990
 C         2.149157         1.478071        -0.247364
 O         3.580864         1.417109        -0.008516
 C         3.790417         0.175910         0.664811
 C         2.535573        -0.343637         1.310837
 H         4.183908        -2.981078         0.993856
 H         3.086397        -3.271141        -0.343649
 H         4.613162        -2.353326        -0.516289
 H        -0.228168         0.980893        -0.357276
 H        -0.110190        -0.829193        -0.513755
 H        -0.593299        -0.015967         0.914132
 H         2.011952         1.603519        -1.329839
 H         1.810560         2.380343         0.331914
 H         4.705042        -0.123203         1.209707
 H         2.541225        -0.488346         2.447790
