19
Iteration:  2675charge 0 multiplicity 1
 C         3.957738        -2.418871        -0.160497
 C         3.152960        -1.174641         0.137644
 O         2.486305        -0.558686        -0.973242
 C         1.547457         0.222160        -0.065332
 C         0.078092         0.255793        -0.494594
 C         2.281132         1.520937         0.133001
 O         3.586268         1.076923         0.615535
 C         3.356685        -0.134219         1.193237
 C         1.991265        -0.700430         1.187566
 H         3.514511        -3.049067        -0.954896
 H         4.915570        -2.105251        -0.499843
 H         4.187397        -3.030633         0.684463
 H        -0.181918         1.220273        -0.991531
 H        -0.261867        -0.696613        -1.033751
 H        -0.518406         0.216094         0.442098
 H         2.519019         1.848912        -0.841127
 H         1.725460         2.228585         0.803588
 H         4.209991        -0.261784         1.879921
 H         1.394696        -0.920500         2.180527
