19
Iteration:  4749
 C         3.919885        -2.396615         0.081799
 C         3.050319        -1.207102         0.013903
 O         2.453438        -0.487826        -1.089329
 C         1.595157         0.195055        -0.074248
 C         0.106572         0.368065        -0.393302
 C         2.286955         1.460673         0.141539
 O         3.506918         1.138116         0.625175
 C         3.444088        -0.233102         1.108747
 C         2.089002        -0.784215         1.101043
 H         3.457541        -3.212881        -0.475532
 H         4.938854        -2.105698        -0.215434
 H         4.073793        -2.661367         1.132756
 H         0.016083         1.359764        -0.768344
 H        -0.136893        -0.544118        -1.001459
 H        -0.491909         0.116766         0.456039
 H         2.255709         2.081343        -0.771122
 H         1.812323         2.200277         0.897784
 H         4.283085        -0.445447         1.734898
 H         1.567961        -1.433190         1.792158
