19
Iteration:    58
 C         3.991189        -2.293596        -0.158807
 C         3.161256        -1.135846         0.225673
 O         2.069809        -1.003352        -0.749482
 C         1.534525         0.122782         0.105790
 C        -0.027628         0.319901         0.134826
 C         2.202118         1.273812        -0.322598
 O         3.594497         1.223290         0.124068
 C         3.698947         0.031442         0.948882
 C         2.324652        -0.384178         1.338326
 H         4.975414        -2.594284         0.340425
 H         3.284587        -3.185759        -0.262337
 H         4.241959        -2.110049        -1.152827
 H        -0.185352         1.374645         0.033069
 H        -0.420803        -0.226225        -0.741133
 H        -0.436362        -0.101328         1.073382
 H         2.198567         1.339148        -1.403179
 H         1.819223         2.216539         0.093524
 H         4.589486         0.060016         1.655427
 H         1.725147        -0.920229         2.218332
