19
Iteration:   235
 C         4.064757        -2.314366        -0.071117
 C         3.085251        -1.287585         0.198140
 O         2.064509        -0.946567        -0.811237
 C         1.523564         0.121928         0.079854
 C         0.020103         0.324190         0.228137
 C         2.160014         1.461229        -0.245969
 O         3.568482         1.183141         0.053789
 C         3.660515         0.009749         0.822685
 C         2.367891        -0.482039         1.317984
 H         4.885835        -2.143074         0.567687
 H         3.709169        -3.344931         0.037901
 H         4.359813        -2.027939        -1.118017
 H        -0.611988         0.493067        -0.678591
 H        -0.553168        -0.477269         0.701229
 H        -0.056496         1.180252         0.901706
 H         2.228232         1.812069        -1.288744
 H         1.736698         2.218600         0.407156
 H         4.556804        -0.054715         1.496993
 H         2.069373        -0.861602         2.236546
