19
Iteration:  4842charge 0 multiplicity 1
 C         3.624004        -2.588063        -0.175515
 C         3.158054        -1.181780         0.137384
 O         2.600097        -0.378737        -0.979897
 C         1.619270         0.212403        -0.093394
 C         0.104472         0.000511        -0.519466
 C         2.159581         1.551285         0.263987
 O         3.598824         1.243508         0.737303
 C         3.518257        -0.123491         1.179012
 C         2.134539        -0.607690         1.056669
 H         2.731533        -3.145494        -0.225856
 H         4.073984        -2.586394        -1.180049
 H         4.413056        -3.061644         0.453573
 H         0.233279        -0.668983        -1.376940
 H        -0.468062        -0.329247         0.246430
 H        -0.484166         0.819706        -0.984575
 H         2.261996         2.203000        -0.607952
 H         1.592356         2.157151         0.983142
 H         4.296607        -0.578161         1.858759
 H         1.410172        -1.195738         1.656960
