19
Iteration:  4670charge 0 multiplicity 1
 C         3.606032        -2.602857        -0.189960
 C         3.120591        -1.158614         0.189909
 O         2.558234        -0.490200        -0.982745
 C         1.539057         0.214528         0.005124
 C         0.116238         0.071156        -0.599207
 C         2.249027         1.534556         0.054780
 O         3.622178         1.272072         0.689354
 C         3.502308        -0.009766         1.204100
 C         2.156283        -0.704154         1.276621
 H         2.768345        -3.127637        -0.486485
 H         4.032160        -2.575659        -1.219873
 H         4.191487        -3.202528         0.552578
 H        -0.777965        -0.019850         0.047986
 H        -0.048609         0.813014        -1.316280
 H         0.121699        -0.968103        -1.024877
 H         2.632412         1.877947        -0.908163
 H         1.824414         2.401046         0.686995
 H         4.293758        -0.191661         1.981248
 H         1.658146        -1.049742         2.212192
