19
Iteration:  1074charge 0 multiplicity 1
 C         3.711185        -2.488245         0.144575
 C         3.083280        -1.180873         0.162288
 O         2.139909        -0.764244        -0.880737
 C         1.502274         0.164175         0.109057
 C         0.144792        -0.086764         0.334535
 C         2.131238         1.493510        -0.214397
 O         3.684905         1.244004        -0.091625
 C         3.728074         0.143623         0.734060
 C         2.399563        -0.322033         1.252016
 H         3.900901        -2.841830         1.163208
 H         3.004676        -3.193165        -0.288657
 H         4.609386        -2.528070        -0.451019
 H        -0.495779         0.074695        -0.554661
 H         0.033377        -1.211800         0.383251
 H        -0.222157         0.322747         1.275167
 H         1.950948         1.856520        -1.205916
 H         2.019564         2.261178         0.493186
 H         4.638202         0.102029         1.237797
 H         2.005299        -0.600707         2.330030
