19
Iteration:  3962
 C         3.788225        -2.578663         0.219065
 C         3.001019        -1.243407         0.169668
 O         2.406017        -0.706756        -0.992231
 C         1.592963         0.200579        -0.112163
 C         0.104268         0.244466        -0.434479
 C         2.333704         1.584136        -0.094248
 O         3.687936         1.247374         0.568955
 C         3.514064        -0.106822         1.053868
 C         2.002024        -0.494136         1.158811
 H         3.134462        -3.371384        -0.279323
 H         4.835789        -2.536666        -0.231563
 H         3.877947        -2.937783         1.262693
 H        -0.000790        -0.763755        -0.933269
 H        -0.480823         0.304839         0.470210
 H        -0.306994         0.927917        -1.143068
 H         2.713147         1.960801        -1.068387
 H         1.911189         2.345551         0.532580
 H         4.328406        -0.152744         1.824547
 H         1.499080        -1.104147         1.924376
