19
Iteration:  2205charge 0 multiplicity 1
 C         3.652740        -2.533079        -0.220510
 C         3.205830        -1.138296         0.017370
 O         2.604820        -0.396926        -1.056421
 C         1.582649         0.142306        -0.096029
 C         0.139566         0.034483        -0.393340
 C         2.163950         1.585571         0.249835
 O         3.514198         1.256929         0.853151
 C         3.572549        -0.102401         1.107641
 C         2.065521        -0.749448         1.060227
 H         4.319423        -2.598803        -1.100326
 H         4.152885        -2.895450         0.656602
 H         2.835331        -3.176320        -0.480866
 H        -0.192324         0.965071        -0.877236
 H        -0.005532        -0.844219        -1.071804
 H        -0.400100        -0.159118         0.561703
 H         2.388058         2.186652        -0.606731
 H         1.645212         2.119117         1.036226
 H         4.359661        -0.222614         1.790525
 H         1.456355        -1.398003         1.762629
