19
Iteration:  2049charge 0 multiplicity 1
 C         3.534503        -2.660755        -0.190962
 C         3.273761        -1.114083         0.077407
 O         2.446563        -0.547686        -1.013753
 C         1.606660         0.178676        -0.004075
 C         0.085529        -0.042655        -0.372661
 C         2.219445         1.584233         0.099229
 O         3.506751         1.388856         0.743546
 C         3.644648        -0.039004         1.012045
 C         2.266132        -0.613748         1.167725
 H         2.639960        -3.059873         0.195725
 H         3.822549        -2.954930        -1.220458
 H         4.354004        -2.988938         0.445120
 H        -0.251293        -1.050208        -0.039884
 H        -0.542623         0.635074         0.229572
 H        -0.067846         0.037825        -1.463555
 H         2.362059         2.176941        -0.796749
 H         1.614512         2.155977         0.817829
 H         4.441377        -0.202163         1.787612
 H         1.862863        -1.112280         2.021200
