19
Iteration:  4910
 C         3.938872        -2.413830        -0.190730
 C         3.126869        -1.156354         0.009104
 O         2.418528        -0.558269        -0.980219
 C         1.513026         0.221338        -0.024485
 C         0.088151         0.325054        -0.540978
 C         2.283030         1.511014         0.202948
 O         3.542651         1.189807         0.833664
 C         3.418045        -0.228899         1.147797
 C         2.117724        -0.812443         1.146445
 H         3.507674        -3.036393        -0.948752
 H         5.027434        -2.152327        -0.475792
 H         4.116266        -3.011007         0.731616
 H        -0.545461        -0.495833        -0.162593
 H        -0.273908         1.261250        -0.357095
 H        -0.035384         0.115635        -1.636563
 H         2.467081         1.835245        -0.838514
 H         1.666049         2.330512         0.567331
 H         4.336020        -0.479300         1.622295
 H         1.572316        -1.228551         1.971739
