19
Iteration:  2524charge 0 multiplicity 1
 C         3.978313        -2.408108        -0.187029
 C         3.136790        -1.190272         0.112800
 O         2.353576        -0.646279        -0.977981
 C         1.500437         0.047372        -0.012964
 C         0.129027         0.393497        -0.556095
 C         2.288597         1.526118         0.206009
 O         3.448414         1.246935         0.796915
 C         3.546887        -0.137615         1.055445
 C         2.110168        -0.795884         1.177501
 H         3.397969        -3.255880        -0.782762
 H         4.640333        -1.998936        -1.002209
 H         4.610201        -2.784476         0.666649
 H        -0.709542        -0.054758        -0.035418
 H        -0.073300         1.465225        -0.581156
 H         0.205131         0.006794        -1.557610
 H         2.504158         2.029741        -0.756344
 H         1.550274         2.222864         0.745410
 H         4.184641        -0.542740         1.747928
 H         1.618236        -1.330007         2.034025
