19
Iteration:  4382charge 0 multiplicity 1
 C         3.793218        -2.492963         0.001162
 C         3.076467        -1.208740         0.255940
 O         2.418207        -0.727583        -0.955239
 C         1.651903         0.191622        -0.136270
 C         0.117342         0.216674        -0.480791
 C         2.346317         1.581372        -0.055066
 O         3.619021         1.120731         0.523959
 C         3.420349        -0.061389         1.187782
 C         2.051584        -0.483443         1.254475
 H         3.168369        -3.240652        -0.503884
 H         4.706640        -2.265154        -0.552428
 H         4.071104        -2.964435         0.892489
 H        -0.434350         0.106863         0.404529
 H        -0.079954         1.154138        -1.120445
 H        -0.200219        -0.658615        -1.028113
 H         2.570814         1.734174        -1.098176
 H         1.829201         2.361709         0.430530
 H         3.925785        -0.225334         2.120546
 H         1.413586        -0.621505         2.145841
