19
Iteration:  2516
 C         4.008032        -2.444936        -0.193645
 C         3.146226        -1.215188         0.085545
 O         2.425799        -0.655043        -0.990343
 C         1.521733         0.095046         0.054998
 C         0.103328         0.458067        -0.524553
 C         2.237288         1.523907         0.108473
 O         3.481257         1.242681         0.811054
 C         3.439402        -0.128967         1.085407
 C         2.098552        -0.852248         1.141026
 H         3.508709        -3.139228        -0.760809
 H         4.853998        -2.083410        -0.824272
 H         4.502864        -2.731384         0.724868
 H        -0.672817         0.031747         0.084082
 H         0.021052         1.510277        -0.499257
 H        -0.234444         0.078824        -1.543913
 H         2.205466         1.994767        -0.938123
 H         1.623995         2.118183         0.812739
 H         4.282506        -0.386295         1.769060
 H         1.785521        -1.435867         2.083715
