19
Iteration:  3311
 C         3.652055        -2.509834         0.109167
 C         3.109088        -1.128441         0.127182
 O         2.373545        -0.691758        -1.051154
 C         1.655311         0.228794        -0.063416
 C         0.208312         0.169219        -0.537183
 C         2.314856         1.543300        -0.019240
 O         3.532472         1.295673         0.782089
 C         3.586407        -0.122818         1.047287
 C         2.090517        -0.626742         1.134297
 H         2.805776        -3.249054         0.117514
 H         4.312475        -2.699825        -0.705618
 H         4.191687        -2.663614         1.002280
 H        -0.023437         0.750723        -1.427021
 H         0.019977        -0.935511        -0.809706
 H        -0.431521         0.420787         0.318973
 H         2.711258         1.832663        -0.952438
 H         1.591076         2.244878         0.441944
 H         4.291589        -0.250834         1.907449
 H         1.685837        -1.154644         1.953034
