19
Iteration:  2345
 C         3.954831        -2.354641        -0.156437
 C         3.097172        -1.215690         0.001426
 O         2.416526        -0.462852        -1.097750
 C         1.549532         0.231509        -0.032227
 C         0.106736         0.159916        -0.391708
 C         2.377145         1.520940         0.195836
 O         3.553958         1.124195         0.884663
 C         3.389030        -0.208857         1.075022
 C         2.011882        -0.697191         1.018723
 H         3.150931        -3.152230        -0.033530
 H         4.675012        -2.344813        -1.009489
 H         4.609348        -2.464015         0.744809
 H        -0.003653         0.732676        -1.294222
 H        -0.066424        -0.874907        -0.661617
 H        -0.614109         0.436968         0.363192
 H         2.526154         1.940251        -0.777423
 H         1.858606         2.127185         0.989531
 H         4.125943        -0.429793         1.824580
 H         1.421297        -1.187302         1.854238
