19
Iteration:  2561
 C         3.796570        -2.454944        -0.255961
 C         3.103502        -1.194020         0.152312
 O         2.450224        -0.510183        -1.009548
 C         1.584783         0.213502        -0.087398
 C         0.136275         0.013176        -0.518133
 C         2.306153         1.591282         0.279190
 O         3.584134         1.256396         0.764804
 C         3.452562        -0.166055         1.139624
 C         2.039313        -0.677112         1.141185
 H         3.088082        -3.211442        -0.331344
 H         4.216529        -2.295337        -1.263101
 H         4.637765        -2.751063         0.359834
 H        -0.264110        -0.986218        -0.372870
 H        -0.494380         0.842034        -0.254418
 H         0.168894         0.062822        -1.652899
 H         2.638839         2.216192        -0.625740
 H         1.828903         2.238210         1.026966
 H         4.197044        -0.237362         2.000494
 H         1.452061        -1.128341         1.945182
