19
Iteration:  4223
 C         3.615768        -2.580939         0.129339
 C         3.087993        -1.208750         0.130150
 O         2.441486        -0.651728        -1.059420
 C         1.626321         0.144024        -0.134895
 C         0.184359         0.193177        -0.452155
 C         2.277277         1.531191         0.019280
 O         3.574769         1.280830         0.628436
 C         3.556154        -0.072029         1.066918
 C         2.149053        -0.496430         1.202109
 H         2.958650        -3.436725         0.210180
 H         4.285698        -2.893036        -0.760443
 H         4.251983        -2.468919         1.039796
 H        -0.515215         0.757377         0.259916
 H         0.245408         0.493303        -1.471511
 H        -0.273959        -0.825025        -0.486510
 H         2.442553         2.047945        -0.931583
 H         1.735793         2.010871         0.779887
 H         4.209783        -0.437828         1.829402
 H         1.489619        -0.837039         2.009336
