19
Iteration:  4312charge 0 multiplicity 1
 C         3.667111        -2.589804         0.159687
 C         3.118293        -1.233412         0.184982
 O         2.435436        -0.659528        -1.012188
 C         1.518641         0.148937        -0.110945
 C         0.052328         0.223605        -0.548186
 C         2.316460         1.550402         0.032014
 O         3.675706         1.298350         0.577413
 C         3.569213        -0.034214         1.052693
 C         2.114352        -0.598079         1.166124
 H         2.950187        -3.413502         0.037010
 H         4.616625        -2.515486        -0.364740
 H         3.997238        -2.819585         1.240430
 H        -0.519977        -0.287799         0.305325
 H        -0.212721         1.221754        -0.742402
 H        -0.216487        -0.488451        -1.338824
 H         2.490218         1.975737        -0.980593
 H         1.874612         2.288274         0.697617
 H         4.306504        -0.206466         1.882794
 H         1.712471        -0.987728         2.092510
