19
Iteration:  3680charge 0 multiplicity 1
 C         3.659751        -2.641346         0.129191
 C         3.093817        -1.280931         0.143675
 O         2.459079        -0.623963        -1.053428
 C         1.585727         0.222584        -0.052292
 C         0.153326         0.215864        -0.522879
 C         2.241595         1.519809         0.095138
 O         3.511937         1.290535         0.604454
 C         3.595530        -0.078451         1.034665
 C         2.184307        -0.517429         1.182440
 H         2.662637        -3.344630         0.074652
 H         4.349256        -2.724299        -0.678589
 H         4.265800        -2.835914         1.034183
 H         0.042872         1.240429        -0.921210
 H         0.370173        -0.598672        -1.306635
 H        -0.620963        -0.010125         0.223130
 H         2.422740         2.020078        -0.932366
 H         1.817025         2.176460         0.851311
 H         4.429065        -0.328346         1.763395
 H         1.605713        -0.942976         2.069961
