19
Iteration:   888charge 0 multiplicity 1
 C         3.692688        -2.641854         0.067484
 C         3.260681        -1.191051         0.134317
 O         2.108813        -0.828799        -0.846619
 C         1.581655         0.109554         0.209326
 C         0.102207         0.108659         0.203174
 C         2.047588         1.473054        -0.165668
 O         3.511140         1.408499        -0.017015
 C         3.759575         0.152932         0.661375
 C         2.579768        -0.439317         1.341259
 H         3.837299        -2.909788         1.111933
 H         2.777351        -3.241751        -0.337664
 H         4.632103        -2.827626        -0.464078
 H        -0.179845         0.357474        -0.844982
 H        -0.250676        -0.958746         0.138715
 H        -0.350433         0.684122         0.984895
 H         1.827514         1.585470        -1.244504
 H         1.628308         2.384299         0.473012
 H         4.702001         0.084106         1.381796
 H         2.214739        -0.698046         2.301844
