19
Iteration:  2819
 C         3.650594        -2.544643        -0.022308
 C         3.049255        -1.137573         0.137140
 O         2.470376        -0.416214        -1.021438
 C         1.598659         0.236301        -0.010306
 C         0.170862        -0.095169        -0.506123
 C         2.322853         1.562684         0.130970
 O         3.635896         1.188975         0.557210
 C         3.515900        -0.127282         1.142748
 C         2.073574        -0.544834         1.202245
 H         2.956123        -3.004465        -0.703164
 H         4.553003        -2.404191        -0.544353
 H         3.835504        -3.105582         0.903984
 H        -0.117845        -1.135425        -0.195658
 H        -0.609544         0.589964        -0.225376
 H         0.226767         0.105080        -1.648783
 H         2.486074         1.952641        -0.842050
 H         1.756024         2.227872         0.879929
 H         4.161179        -0.379287         1.980125
 H         1.527201        -0.800384         2.047584
