19
Iteration:  2114
 C         3.986125        -2.361402        -0.156074
 C         3.076566        -1.223932         0.142195
 O         2.438615        -0.550763        -1.007494
 C         1.516499         0.215060         0.000946
 C         0.058314         0.280716        -0.357824
 C         2.273122         1.539647         0.148326
 O         3.598158         1.144088         0.549053
 C         3.527299        -0.158621         1.118849
 C         1.981712        -0.813782         1.142903
 H         4.765056        -2.499695         0.607753
 H         3.547201        -3.378672        -0.534506
 H         4.602465        -1.997190        -1.070861
 H        -0.585188         0.424999         0.524205
 H        -0.261904         1.062143        -1.053806
 H        -0.213535        -0.690601        -0.830496
 H         2.128773         1.985480        -0.809997
 H         1.879263         2.066977         1.003220
 H         4.034845        -0.377076         2.126974
 H         1.528591        -1.229535         2.015524
