19
Iteration:  2154charge 0 multiplicity 1
 C         3.959258        -2.411678        -0.260138
 C         3.130769        -1.208661         0.044191
 O         2.365237        -0.662349        -1.012961
 C         1.554604         0.178279         0.025141
 C         0.062036         0.275046        -0.456754
 C         2.303271         1.494619         0.148444
 O         3.529715         1.297199         0.857473
 C         3.463597        -0.177188         1.075686
 C         2.109544        -0.736957         1.145711
 H         5.068203        -2.281634        -0.291523
 H         3.650003        -3.328859         0.254839
 H         3.737575        -2.432444        -1.355071
 H        -0.379337         1.210924        -0.046958
 H        -0.020325         0.074482        -1.541445
 H        -0.368643        -0.541796         0.075007
 H         2.661997         2.054633        -0.787828
 H         1.555089         2.168713         0.714204
 H         4.255008        -0.410290         1.851163
 H         1.569619        -1.040718         2.074615
