19
Iteration:  1784
 C         3.927660        -2.323788        -0.165718
 C         3.039964        -1.173808         0.121595
 O         2.252876        -0.714270        -0.989656
 C         1.582971         0.116536         0.036901
 C         0.048949         0.166924        -0.022361
 C         2.239037         1.545000        -0.043558
 O         3.652326         1.258534         0.402184
 C         3.560501        -0.098626         1.021737
 C         2.193796        -0.668030         1.249002
 H         3.343817        -3.246871        -0.444201
 H         4.449398        -2.150720        -1.080247
 H         4.592927        -2.543546         0.696754
 H        -0.291900        -0.654187         0.621122
 H        -0.516422         1.142045         0.157347
 H        -0.081385        -0.201016        -1.082266
 H         2.046829         1.741567        -1.087043
 H         1.825881         2.269775         0.638356
 H         4.477111        -0.379965         1.621995
 H         1.603433        -0.862496         2.098286
