19
Iteration:  2139charge 0 multiplicity 1
 C         4.008054        -2.318751        -0.285865
 C         3.085876        -1.222617         0.120213
 O         2.358106        -0.624095        -1.013243
 C         1.558262         0.150203        -0.062645
 C         0.122486         0.266492        -0.362474
 C         2.255422         1.521011         0.148781
 O         3.549133         1.138958         0.739433
 C         3.497609        -0.156033         1.135493
 C         2.043664        -0.686834         1.137103
 H         4.901841        -2.112699         0.266929
 H         3.674188        -3.259694         0.089999
 H         4.237085        -2.492992        -1.301847
 H        -0.325245         1.115773         0.158402
 H         0.027667         0.601095        -1.414616
 H        -0.553039        -0.625451        -0.275989
 H         2.307139         1.879268        -0.865172
 H         1.765951         2.162918         0.839399
 H         4.078494        -0.603409         1.930850
 H         1.559539        -0.955621         2.106397
