19
Iteration:  2502
 C         4.054779        -2.407668        -0.173054
 C         3.155882        -1.248641         0.077516
 O         2.446237        -0.593208        -1.034643
 C         1.529630         0.148981        -0.117076
 C         0.059210         0.454838        -0.386432
 C         2.179154         1.433493         0.148993
 O         3.474956         1.223916         0.744333
 C         3.481800        -0.166072         1.208505
 C         2.117431        -0.815153         1.091289
 H         3.496186        -3.262557        -0.767303
 H         5.026141        -2.232459        -0.673107
 H         4.165741        -2.910730         0.820754
 H        -0.607079         0.140290         0.411626
 H        -0.104227         1.520360        -0.535464
 H        -0.086870        -0.002153        -1.321918
 H         2.476562         1.795157        -0.848062
 H         1.564875         2.294809         0.611908
 H         4.045830        -0.415467         2.046829
 H         1.397364        -1.225477         1.822960
