19
Iteration:  2849charge 0 multiplicity 1
 C         3.753260        -2.569227        -0.007753
 C         3.093610        -1.209907         0.223863
 O         2.396424        -0.691779        -0.949751
 C         1.641259         0.221686        -0.087828
 C         0.121816         0.188764        -0.523328
 C         2.302464         1.586406         0.055040
 O         3.553149         1.313251         0.647941
 C         3.544809        -0.098403         1.075328
 C         2.115815        -0.650703         1.171102
 H         3.082410        -2.905765        -0.838207
 H         4.648919        -2.350721        -0.576240
 H         4.047562        -3.270562         0.776801
 H        -0.193813        -0.705138        -1.079534
 H        -0.547006         0.369553         0.309970
 H        -0.061127         1.044568        -1.210459
 H         2.517073         2.077935        -0.877640
 H         1.613374         2.233536         0.614358
 H         4.196535        -0.400416         1.872406
 H         1.677925        -1.064872         2.083877
