19
Iteration:   287charge 0 multiplicity 1
 C         3.865811        -2.542050         0.031611
 C         3.137485        -1.280735         0.164751
 O         2.110915        -0.780220        -0.789370
 C         1.543552         0.205761         0.131715
 C         0.027975         0.090280         0.198223
 C         2.170172         1.449858        -0.223561
 O         3.517156         1.318363         0.040661
 C         3.764643         0.084133         0.716784
 C         2.434484        -0.451635         1.276050
 H         4.274553        -2.659907         1.050799
 H         3.134526        -3.402987        -0.101657
 H         4.604793        -2.433139        -0.699105
 H        -0.549767         0.928432        -0.128134
 H        -0.312022        -0.845647        -0.231195
 H        -0.297962         0.076827         1.217161
 H         2.005972         1.664514        -1.286678
 H         1.795170         2.352320         0.339435
 H         4.804667         0.027688         1.019224
 H         2.203311        -0.393942         2.352134
