19
Iteration:   330
 C         3.416397        -2.653632         0.105917
 C         3.265719        -1.126366         0.116646
 O         2.251459        -0.689975        -0.832484
 C         1.590236         0.104208         0.066405
 C         0.085655        -0.210000         0.155197
 C         2.159805         1.510725        -0.077777
 O         3.519544         1.395247        -0.025653
 C         3.850636         0.234268         0.699298
 C         2.530485        -0.385481         1.297708
 H         3.886548        -3.068791         1.052135
 H         2.310958        -3.015811         0.233996
 H         3.899971        -3.021795        -0.754111
 H        -0.672325         0.342913        -0.381577
 H        -0.023112        -1.229130        -0.249800
 H        -0.132757        -0.221198         1.240651
 H         1.913153         1.949431        -1.055050
 H         1.768650         2.196625         0.757013
 H         4.792868         0.316133         1.299853
 H         2.188961        -0.611308         2.317724
