19
Iteration:  4539charge 0 multiplicity 1
 C         3.881874        -2.488106        -0.220693
 C         3.102252        -1.258194         0.178675
 O         2.377611        -0.764376        -0.927799
 C         1.569029         0.201257        -0.032852
 C         0.101145         0.217217        -0.552108
 C         2.420677         1.547754        -0.023768
 O         3.648585         1.166042         0.686131
 C         3.389666        -0.043192         1.236397
 C         1.969512        -0.465707         1.235754
 H         3.441065        -3.125526        -0.961834
 H         4.981886        -2.201648        -0.498813
 H         4.111566        -3.069174         0.774316
 H         0.055580        -0.314027        -1.584331
 H        -0.627346        -0.399024        -0.071042
 H        -0.317478         1.272379        -0.311821
 H         2.617775         2.018090        -0.992315
 H         1.961528         2.335251         0.559642
 H         3.892781        -0.223509         2.150852
 H         1.303133        -0.664266         2.069126
