19
Iteration:  1308charge 0 multiplicity 1
 C         3.706246        -2.603756         0.273660
 C         3.059137        -1.088984         0.168810
 O         2.253532        -0.728039        -0.947503
 C         1.549789         0.154642         0.057365
 C         0.074939        -0.093010         0.353997
 C         2.207379         1.488532        -0.201500
 O         3.579863         1.277706        -0.134594
 C         3.748179         0.161370         0.716942
 C         2.340743        -0.364071         1.234294
 H         3.837347        -2.679553         1.314706
 H         3.121268        -3.479376        -0.136788
 H         4.712832        -2.480716        -0.130756
 H        -0.660209         0.625735        -0.079203
 H        -0.250312        -1.075792        -0.083207
 H         0.112344        -0.208679         1.472397
 H         1.949349         1.938703        -1.200112
 H         1.902014         2.209585         0.654588
 H         4.686482        -0.003611         1.190242
 H         2.063833        -0.896072         2.152023
