19
Iteration:  4234charge 0 multiplicity 1
 C         3.587281        -2.566825         0.129356
 C         3.120997        -1.180218         0.179260
 O         2.383630        -0.607558        -0.993141
 C         1.627871         0.207675        -0.094929
 C         0.189269         0.079742        -0.516844
 C         2.295777         1.533347         0.027991
 O         3.626431         1.270874         0.593480
 C         3.535486        -0.063675         1.129082
 C         2.170899        -0.587047         1.110196
 H         2.673218        -3.125637         0.271807
 H         4.019506        -2.718861        -0.917671
 H         4.360832        -2.919296         0.852871
 H        -0.473359         0.601325         0.268262
 H        -0.042302         0.676255        -1.371068
 H         0.032289        -0.987110        -0.714745
 H         2.457509         1.995854        -0.954477
 H         1.715129         2.263610         0.523337
 H         4.204423        -0.152937         1.951702
 H         1.616088        -0.725718         2.031140
