19
Iteration:  4579charge 0 multiplicity 1
 C         3.816135        -2.525141        -0.009227
 C         3.023540        -1.218063         0.102613
 O         2.488591        -0.613289        -1.009645
 C         1.537043         0.172266        -0.018732
 C         0.158547         0.303314        -0.529487
 C         2.282799         1.491088         0.064655
 O         3.542325         1.218277         0.646373
 C         3.485044        -0.118510         1.170104
 C         2.126624        -0.654468         1.204369
 H         3.368993        -3.304079        -0.725903
 H         4.707541        -2.516146        -0.637967
 H         3.974667        -2.704836         1.031735
 H        -0.076714        -0.538708        -1.212074
 H        -0.566461         0.558688         0.275967
 H         0.234613         1.200252        -1.133178
 H         2.402356         1.767249        -1.025486
 H         1.664521         2.326561         0.565928
 H         4.190003        -0.237291         1.993727
 H         1.498726        -1.045880         1.990274
