19
Iteration:  3767
 C         3.727520        -2.594110         0.068234
 C         3.115630        -1.225725         0.150970
 O         2.407547        -0.710924        -1.004550
 C         1.548062         0.189269         0.001653
 C         0.130805         0.244116        -0.506603
 C         2.282357         1.542496        -0.003516
 O         3.643111         1.256886         0.566471
 C         3.520515        -0.038194         1.137097
 C         2.136589        -0.553948         1.201440
 H         2.961377        -3.238285        -0.478161
 H         4.654459        -2.636776        -0.384938
 H         3.725461        -3.083069         1.036319
 H        -0.684526         0.624000         0.166043
 H        -0.042460         0.724997        -1.488346
 H        -0.094519        -0.811724        -0.727827
 H         2.442861         1.941639        -1.064291
 H         1.870753         2.421162         0.506011
 H         4.281817        -0.023391         1.879358
 H         1.591374        -0.827333         2.092022
