19
Iteration:   786
 C         3.809790        -2.540226         0.012327
 C         3.194442        -1.187243         0.098208
 O         2.049273        -0.873801        -0.771318
 C         1.535697         0.094644         0.127046
 C         0.093926         0.153702         0.148392
 C         2.090217         1.481169        -0.167124
 O         3.526579         1.329456         0.104798
 C         3.819099         0.131031         0.701291
 C         2.488203        -0.475266         1.261268
 H         4.702283        -2.490552         0.665011
 H         3.073833        -3.267174         0.398200
 H         4.043904        -2.903084        -0.970298
 H        -0.292187         0.314178        -0.882163
 H        -0.294263        -0.719251         0.668648
 H        -0.293875         1.071770         0.712134
 H         1.881875         1.826679        -1.238118
 H         1.627603         2.312051         0.533309
 H         4.625977        -0.004055         1.337136
 H         2.377288        -0.734833         2.363915
