19
Iteration:  4498
 C         3.701555        -2.519956         0.073829
 C         3.077562        -1.165643         0.134501
 O         2.463444        -0.611845        -1.020847
 C         1.572500         0.178434        -0.044541
 C         0.145485         0.193787        -0.482472
 C         2.370370         1.580420         0.026284
 O         3.593706         1.217765         0.581697
 C         3.469844        -0.106046         1.152834
 C         2.063217        -0.684288         1.146378
 H         3.148090        -3.416439        -0.238156
 H         4.615186        -2.229872        -0.393252
 H         4.075450        -2.821017         1.095624
 H         0.056232         0.965052        -1.287275
 H        -0.154348        -0.756626        -0.942673
 H        -0.529621         0.580443         0.310203
 H         2.602323         1.997878        -0.949770
 H         1.872360         2.360721         0.652129
 H         4.169913        -0.220642         1.954156
 H         1.474197        -1.280956         1.858179
