19
Iteration:  2677
 C         3.961302        -2.410204        -0.167695
 C         3.137552        -1.165364         0.162149
 O         2.485077        -0.554113        -0.963510
 C         1.573276         0.227956        -0.070931
 C         0.061982         0.243573        -0.493446
 C         2.289380         1.512400         0.130199
 O         3.597202         1.068658         0.609059
 C         3.351473        -0.133614         1.201333
 C         1.972480        -0.692087         1.164266
 H         3.531051        -3.075476        -0.986727
 H         4.973086        -2.113786        -0.536125
 H         4.269974        -3.040840         0.698941
 H        -0.192858         1.219540        -0.921329
 H        -0.311695        -0.619834        -1.041264
 H        -0.559098         0.178292         0.474573
 H         2.492028         1.816942        -0.855958
 H         1.726580         2.184443         0.777792
 H         4.227323        -0.277805         1.921917
 H         1.407094        -0.905049         2.147326
