19
Iteration:  2907charge 0 multiplicity 1
 C         3.894105        -2.468991         0.115206
 C         3.028825        -1.207668         0.117975
 O         2.417242        -0.652449        -1.015406
 C         1.568989         0.268761        -0.117610
 C         0.011275         0.243475        -0.407717
 C         2.380690         1.528741         0.012177
 O         3.622530         1.213330         0.665909
 C         3.524589        -0.158564         1.078997
 C         1.991506        -0.652833         1.068285
 H         3.518485        -3.449974         0.240169
 H         4.518964        -2.408904        -0.741949
 H         4.548710        -2.510291         0.992011
 H        -0.121273        -0.282481        -1.386499
 H        -0.541162        -0.227349         0.420003
 H        -0.404494         1.297712        -0.564332
 H         2.670494         1.823506        -0.969330
 H         1.787785         2.319316         0.561193
 H         4.235187        -0.565729         1.830341
 H         1.399520        -1.010509         1.916740
