19
Iteration:   713charge 0 multiplicity 1
 C         3.531528        -2.493518         0.042015
 C         3.073674        -1.172066         0.202407
 O         2.319750        -0.678699        -0.905294
 C         1.572323         0.205731         0.168550
 C         0.148817        -0.226308         0.276701
 C         2.101482         1.521031        -0.137517
 O         3.621636         1.253562        -0.093671
 C         3.781991         0.132585         0.781974
 C         2.416290        -0.397487         1.228218
 H         4.314495        -2.740448         0.708290
 H         2.645389        -3.239098         0.082728
 H         3.896070        -2.509889        -1.001897
 H        -0.501538         0.155508        -0.495226
 H         0.162136        -1.245729         0.571377
 H        -0.243639         0.280357         1.139805
 H         1.745443         1.901611        -1.055753
 H         1.873772         2.190510         0.642058
 H         4.549626         0.358416         1.478060
 H         2.037666        -0.591047         2.256065
