19
Iteration:  4895charge 0 multiplicity 1
 C         3.931674        -2.495417        -0.125338
 C         3.101981        -1.249846         0.044989
 O         2.425732        -0.454033        -1.070167
 C         1.546332         0.124857        -0.012599
 C         0.055482         0.290979        -0.525498
 C         2.253404         1.527118         0.225137
 O         3.514458         1.216925         0.837815
 C         3.559442        -0.154179         1.060443
 C         2.099982        -0.777275         1.060800
 H         3.363987        -3.298333        -0.563748
 H         4.884574        -2.257807        -0.488166
 H         4.026429        -2.871309         0.899621
 H        -0.528951        -0.602267        -0.356396
 H        -0.434678         1.215249        -0.096819
 H         0.161198         0.540893        -1.557378
 H         2.417808         2.079690        -0.710750
 H         1.795119         2.148611         1.047965
 H         4.074910        -0.441140         2.008408
 H         1.665169        -1.318740         1.916987
