19
Iteration:  1155charge 0 multiplicity 1
 C         3.811187        -2.550481         0.201307
 C         3.127313        -1.220124         0.118268
 O         2.150150        -0.861649        -0.805586
 C         1.507693         0.176013         0.122677
 C        -0.005853         0.047651         0.219376
 C         2.158562         1.518870        -0.167481
 O         3.603031         1.394157        -0.001092
 C         3.792945         0.063568         0.651087
 C         2.396277        -0.442839         1.221407
 H         4.871287        -2.380195         0.498633
 H         3.284491        -3.213596         0.924272
 H         3.842029        -2.990730        -0.836436
 H        -0.354351        -0.159263        -0.817990
 H        -0.195154        -0.783668         0.882202
 H        -0.652788         0.943605         0.411745
 H         1.994954         1.793984        -1.220337
 H         1.696454         2.242277         0.471067
 H         4.834521         0.040026         1.063970
 H         2.214783        -0.530284         2.228168
