19
Iteration:  4060
 C         3.614684        -2.587814         0.235271
 C         3.108165        -1.169212         0.197852
 O         2.485480        -0.655795        -1.072717
 C         1.610300         0.273368        -0.196454
 C         0.052374         0.162973        -0.521331
 C         2.290311         1.587127         0.097310
 O         3.620792         1.239410         0.602181
 C         3.568612        -0.091112         1.057909
 C         2.132604        -0.616626         1.085772
 H         2.854911        -3.327198         0.429892
 H         4.098295        -2.898675        -0.722516
 H         4.388535        -2.521277         0.995780
 H        -0.476506         0.042867         0.496846
 H        -0.340853         0.962670        -1.108004
 H        -0.125223        -0.759816        -1.042475
 H         2.691426         2.211085        -0.706449
 H         1.885748         2.123616         0.961647
 H         4.265699        -0.282703         1.885084
 H         1.587846        -0.995041         1.969109
