19
Iteration:   789
 C         3.839769        -2.527432        -0.000419
 C         3.195515        -1.199286         0.107253
 O         2.067654        -0.881434        -0.771778
 C         1.547115         0.107086         0.136277
 C         0.057364         0.196307         0.175948
 C         2.114246         1.456056        -0.153469
 O         3.529386         1.320757         0.079222
 C         3.794052         0.125659         0.702097
 C         2.451603        -0.472255         1.265060
 H         4.671907        -2.436909         0.639503
 H         3.083976        -3.354675         0.319234
 H         4.092373        -2.857678        -1.012712
 H        -0.331438         0.256686        -0.860837
 H        -0.375697        -0.724576         0.555633
 H        -0.247045         1.046547         0.770913
 H         1.969473         1.712841        -1.204876
 H         1.622787         2.268511         0.436947
 H         4.651408         0.183324         1.452444
 H         2.356230        -0.766632         2.293064
