19
Iteration:  3335charge 0 multiplicity 1
 C         3.585170        -2.641281        -0.047638
 C         3.139425        -1.209639         0.239866
 O         2.419793        -0.677334        -0.990416
 C         1.635627         0.151998        -0.071063
 C         0.120401         0.075535        -0.600052
 C         2.296183         1.581435         0.062805
 O         3.633358         1.370805         0.673505
 C         3.532951         0.031277         1.188065
 C         2.159383        -0.577146         1.154626
 H         2.758414        -3.131700        -0.507247
 H         4.424181        -2.705787        -0.801421
 H         3.891390        -3.180496         0.866036
 H         0.251863         0.488119        -1.613712
 H        -0.330769        -0.901564        -0.745866
 H        -0.486699         0.726204        -0.022145
 H         2.614126         2.079295        -0.823636
 H         1.499021         2.109878         0.689231
 H         4.301974        -0.047105         1.929744
 H         1.652227        -0.879094         2.103519
