19
Iteration:  2573
 C         3.725450        -2.491896        -0.237638
 C         3.112089        -1.194734         0.146595
 O         2.586842        -0.417910        -0.972693
 C         1.599143         0.247292        -0.044937
 C         0.162370        -0.018791        -0.504226
 C         2.242809         1.620625         0.229078
 O         3.545955         1.155257         0.735613
 C         3.501535        -0.119140         1.166081
 C         2.041200        -0.649001         1.035162
 H         2.992483        -3.224350        -0.231500
 H         4.090506        -2.385842        -1.244555
 H         4.462727        -2.833683         0.467458
 H        -0.081599        -1.081465        -0.289256
 H        -0.484167         0.419431         0.290103
 H        -0.088632         0.365902        -1.505029
 H         2.188158         2.112717        -0.780062
 H         1.683212         2.220443         0.939305
 H         4.155581        -0.472549         2.028674
 H         1.400625        -1.046926         1.758667
