19
Iteration:  2034charge 0 multiplicity 1
 C         3.533205        -2.563957        -0.132067
 C         3.118305        -1.179832         0.066382
 O         2.475935        -0.482985        -1.040255
 C         1.599828         0.155559        -0.039013
 C         0.152613        -0.061785        -0.283699
 C         2.150138         1.533061         0.105643
 O         3.562823         1.325215         0.666953
 C         3.642658         0.023646         1.121674
 C         2.310966        -0.611187         1.153887
 H         2.691295        -3.206404        -0.576764
 H         4.099968        -2.573164        -1.108886
 H         4.003158        -3.187594         0.699223
 H         0.066126        -1.128575        -0.484164
 H        -0.562237         0.377462         0.434592
 H        -0.045559         0.439644        -1.216730
 H         2.299794         1.833397        -0.951159
 H         1.615655         2.325951         0.605898
 H         4.423984        -0.208048         1.771835
 H         1.752340        -1.085926         2.006972
