19
Iteration:  2104charge 0 multiplicity 1
 C         3.945653        -2.363264        -0.194683
 C         3.094406        -1.237346         0.188793
 O         2.458545        -0.548130        -0.979832
 C         1.528261         0.174511         0.017398
 C         0.024483         0.229314        -0.369711
 C         2.216247         1.539831         0.219882
 O         3.618331         1.142145         0.545128
 C         3.493124        -0.139571         1.053097
 C         2.058220        -0.746112         1.061217
 H         4.251569        -2.730376         0.781427
 H         3.297973        -3.245530        -0.503446
 H         4.850603        -2.094734        -0.741769
 H        -0.540958         0.108301         0.558595
 H        -0.127914         1.191589        -0.860381
 H        -0.231258        -0.600464        -1.079214
 H         2.373232         2.048726        -0.702643
 H         1.781127         2.283340         0.864308
 H         4.095179        -0.383819         2.004552
 H         1.745405        -0.979001         2.034404
