19
Iteration:  4025charge 0 multiplicity 1
 C         3.691915        -2.594852         0.022408
 C         3.078219        -1.232620         0.254817
 O         2.438363        -0.645555        -0.905110
 C         1.585520         0.211294        -0.077965
 C         0.192348         0.251714        -0.576170
 C         2.337478         1.527903        -0.043829
 O         3.585602         1.191100         0.545245
 C         3.516128        -0.000706         1.136940
 C         2.081263        -0.601169         1.224050
 H         3.050666        -3.407201         0.319405
 H         4.203417        -2.629116        -1.028007
 H         4.496956        -2.773896         0.678125
 H        -0.395840        -0.371402         0.084056
 H        -0.350627         1.255377        -0.659196
 H         0.196886        -0.276293        -1.542044
 H         2.329442         1.888506        -1.077249
 H         1.671416         2.287156         0.451494
 H         3.937362        -0.312193         2.118797
 H         1.735690        -0.535202         2.248377
