19
Iteration:  4462charge 0 multiplicity 1
 C         3.551869        -2.664598         0.195967
 C         3.125354        -1.238096         0.116669
 O         2.635601        -0.678719        -1.077893
 C         1.670793         0.220012        -0.111120
 C         0.093381         0.188291        -0.495411
 C         2.243445         1.603694         0.169878
 O         3.502289         1.340530         0.608940
 C         3.561464        -0.057475         1.048232
 C         2.150779        -0.605442         1.067698
 H         2.811623        -3.394709         0.080287
 H         4.154937        -2.997871        -0.724629
 H         4.232300        -2.690178         1.100491
 H        -0.099340         1.333026        -0.712717
 H        -0.269066        -0.301020        -1.393235
 H        -0.586156        -0.262503         0.310386
 H         2.177600         2.293766        -0.694132
 H         1.592424         2.007738         0.943985
 H         4.299516        -0.255516         1.835210
 H         1.775396        -1.080058         1.964139
