19
Iteration:  4774charge 0 multiplicity 1
 C         3.866231        -2.509680        -0.124470
 C         3.141485        -1.246674         0.129452
 O         2.460891        -0.591191        -1.015968
 C         1.584026         0.165133        -0.133595
 C         0.075042         0.245203        -0.471592
 C         2.193446         1.586012         0.182995
 O         3.607372         1.235090         0.742345
 C         3.481406        -0.145259         1.128740
 C         2.066150        -0.679835         1.070168
 H         3.123963        -3.226397        -0.590763
 H         4.763404        -2.308028        -0.655760
 H         4.197884        -2.905770         0.811481
 H         0.045162         0.859099        -1.365707
 H        -0.369676        -0.816969        -0.508255
 H        -0.447328         0.691473         0.350844
 H         2.297922         2.130642        -0.779159
 H         1.792065         2.365944         0.888317
 H         4.075771        -0.415538         1.999390
 H         1.587783        -1.062253         1.963782
