19
Iteration:  1813
 C         3.875117        -2.573069        -0.159991
 C         3.170036        -1.178630         0.102202
 O         2.233988        -0.658877        -0.928803
 C         1.526189         0.066609         0.048693
 C        -0.044189         0.182992        -0.271379
 C         2.189721         1.605407         0.159472
 O         3.522104         1.291443         0.429189
 C         3.695884        -0.041890         0.940096
 C         2.399386        -0.588058         1.265430
 H         3.363986        -3.432167         0.385832
 H         3.820251        -2.861557        -1.237502
 H         4.926314        -2.732130         0.082053
 H        -0.608055        -0.426447         0.417909
 H        -0.432452         1.162571        -0.208051
 H        -0.124700        -0.258618        -1.259702
 H         1.864420         2.003182        -0.843031
 H         1.770057         2.337958         0.971351
 H         4.597954        -0.122134         1.507251
 H         2.026017        -0.875199         2.276795
