19
Iteration:  3863charge 0 multiplicity 1
 C         3.595186        -2.547812         0.032064
 C         3.025678        -1.186822         0.272790
 O         2.398774        -0.678682        -0.915301
 C         1.629321         0.218725         0.011806
 C         0.211331         0.080546        -0.522419
 C         2.359872         1.547747        -0.085996
 O         3.665232         1.238861         0.490955
 C         3.498150         0.005940         1.117008
 C         2.080059        -0.556393         1.228227
 H         2.855749        -3.316614         0.287677
 H         4.074889        -2.599122        -1.013539
 H         4.400036        -2.750579         0.722890
 H        -0.113764        -0.951267        -0.607164
 H        -0.577933         0.692813         0.014716
 H         0.246651         0.491709        -1.543531
 H         2.569523         1.844217        -1.156826
 H         2.058398         2.473758         0.445868
 H         4.092571        -0.159971         1.972269
 H         1.625974        -0.835856         2.145709
