19
Iteration:  3842
 C         3.715752        -2.515150         0.101239
 C         3.005889        -1.212294         0.277084
 O         2.474763        -0.666099        -0.990641
 C         1.597509         0.206161        -0.137835
 C         0.094964         0.211873        -0.436691
 C         2.349881         1.467492        -0.091168
 O         3.643596         1.202944         0.481481
 C         3.501176        -0.084406         1.213211
 C         2.076553        -0.513109         1.196550
 H         3.101701        -3.423138         0.363174
 H         4.090377        -2.479590        -0.923355
 H         4.648041        -2.552574         0.641784
 H        -0.433894        -0.640689         0.020586
 H        -0.316484         1.221743        -0.144554
 H        -0.171735         0.119375        -1.496802
 H         2.651032         1.915544        -1.101753
 H         1.864769         2.254838         0.575140
 H         4.241531        -0.265379         1.946645
 H         1.383615        -0.874403         1.912328
