19
Iteration:  4901
 C         3.949502        -2.452563        -0.136664
 C         3.092420        -1.244937         0.030400
 O         2.433771        -0.484667        -1.028831
 C         1.537126         0.142035        -0.012084
 C         0.046512         0.315313        -0.554179
 C         2.273412         1.518136         0.242430
 O         3.527099         1.196220         0.836553
 C         3.469685        -0.128028         1.066179
 C         2.136409        -0.802035         1.097135
 H         3.479062        -3.270534        -0.838314
 H         4.989682        -2.338955        -0.619835
 H         3.911329        -2.821409         0.909115
 H        -0.617779        -0.511861        -0.179052
 H        -0.511575         1.225074        -0.088914
 H         0.175575         0.357243        -1.676910
 H         2.584701         1.890313        -0.761802
 H         1.771413         2.266767         0.859685
 H         4.144002        -0.498494         1.823448
 H         1.686023        -1.261723         1.973249
