19
Iteration:   336
 C         3.421454        -2.685149         0.149293
 C         3.232432        -1.169414         0.097535
 O         2.323078        -0.642051        -0.886854
 C         1.573619         0.117905         0.074367
 C         0.140670        -0.234521         0.186984
 C         2.083003         1.518530        -0.065503
 O         3.545729         1.375767        -0.028601
 C         3.794253         0.202671         0.692416
 C         2.519434        -0.319396         1.292717
 H         3.962143        -3.055036         1.030599
 H         2.426389        -3.019015         0.275133
 H         3.830857        -3.016889        -0.848744
 H        -0.599039         0.438680        -0.319124
 H         0.019101        -1.285560        -0.120136
 H        -0.302153        -0.118245         1.201362
 H         1.796395         2.027872        -0.997043
 H         1.899528         2.209871         0.743079
 H         4.659168         0.192001         1.315124
 H         2.285599        -0.674573         2.322843
