19
Iteration:   455
 C         3.993681        -2.304319        -0.157861
 C         3.119561        -1.195536         0.240205
 O         2.035363        -0.957605        -0.708833
 C         1.484669         0.060645         0.099585
 C        -0.097310         0.239071         0.209288
 C         2.256982         1.400083        -0.413822
 O         3.711277         1.270612         0.121364
 C         3.718037         0.052033         0.827229
 C         2.335641        -0.465159         1.367258
 H         4.564207        -2.802785         0.671874
 H         3.295862        -3.052251        -0.634106
 H         4.705674        -1.901348        -1.044997
 H        -0.620509         0.803124        -0.597733
 H        -0.644023        -0.697202         0.454479
 H        -0.314258         0.846348         1.127521
 H         1.988130         1.425278        -1.483258
 H         1.859706         2.304238         0.153632
 H         4.563860        -0.151971         1.370426
 H         1.965708        -0.640672         2.428659
