19
Iteration:  3501
 C         3.682246        -2.520123         0.077652
 C         3.072467        -1.190007         0.130731
 O         2.466346        -0.634596        -0.984399
 C         1.642620         0.298195        -0.035162
 C         0.158483         0.087758        -0.535547
 C         2.355835         1.606734         0.106811
 O         3.602912         1.157711         0.572487
 C         3.494885        -0.135675         1.070380
 C         2.007267        -0.519010         1.148263
 H         2.960856        -3.300948         0.002426
 H         4.352721        -2.637640        -0.816899
 H         4.189153        -2.529162         1.050670
 H        -0.155304         0.702942        -1.437118
 H         0.240534        -0.919695        -0.899216
 H        -0.602271         0.056408         0.287768
 H         2.489437         2.276741        -0.784507
 H         1.733644         2.144728         0.830938
 H         4.244561        -0.405929         1.842364
 H         1.526128        -0.695788         2.070907
