19
Iteration:   518
 C         3.506925        -2.595618         0.197087
 C         3.260709        -1.129990         0.059066
 O         2.278802        -0.725222        -0.941210
 C         1.590899         0.087555         0.185966
 C        -0.024362        -0.069995         0.208061
 C         2.115304         1.501953        -0.070205
 O         3.520878         1.359322        -0.050491
 C         3.834932         0.155989         0.697798
 C         2.534404        -0.430368         1.222001
 H         4.113613        -2.823045         1.004111
 H         2.579707        -3.126463         0.475385
 H         4.076519        -2.987257        -0.615211
 H        -0.506950         0.214967        -0.736510
 H        -0.172135        -1.139834         0.348130
 H        -0.402949         0.519553         1.036947
 H         1.859908         2.170505        -0.850219
 H         1.977606         2.007514         0.870080
 H         4.707865         0.329725         1.252516
 H         2.199269        -0.944674         2.170579
