19
Iteration:  2457
 C         3.767756        -2.466808        -0.145475
 C         3.082793        -1.192741         0.036159
 O         2.466424        -0.433180        -1.082882
 C         1.620310         0.262826        -0.049042
 C         0.125023        -0.004400        -0.419154
 C         2.330825         1.590389         0.201334
 O         3.541471         1.194595         0.792890
 C         3.483964        -0.190299         1.159468
 C         2.054690        -0.648921         1.034958
 H         3.376206        -3.314910        -0.853297
 H         4.743716        -2.138936        -0.536188
 H         3.948979        -3.017116         0.803484
 H        -0.473633         0.352999         0.437901
 H        -0.271269         0.456700        -1.349361
 H         0.073684        -1.032785        -0.549804
 H         2.448143         2.194673        -0.677751
 H         1.792115         2.226268         1.009473
 H         4.254732        -0.370995         1.926426
 H         1.446456        -1.136270         1.727580
