19
Iteration:   107charge 0 multiplicity 1
 C         3.754884        -2.492521         0.103384
 C         3.165389        -1.119071         0.088397
 O         2.071682        -0.802154        -0.907776
 C         1.562759         0.121658         0.095426
 C        -0.015314        -0.005050         0.106119
 C         2.153531         1.499632        -0.110509
 O         3.600564         1.293871         0.134763
 C         3.780196         0.095433         0.796789
 C         2.469888        -0.438354         1.261125
 H         4.281721        -2.633657         1.025333
 H         2.996222        -3.252359        -0.007087
 H         4.541796        -2.709659        -0.735605
 H        -0.381892         0.949428        -0.377392
 H        -0.188775        -0.879001        -0.543320
 H        -0.354001        -0.227891         1.124439
 H         2.099468         1.940208        -1.134357
 H         1.897729         2.283315         0.629981
 H         4.786528         0.002166         1.192964
 H         2.150603        -0.685935         2.204730
