19
Iteration:  2484
 C         3.957051        -2.414785        -0.106232
 C         3.148878        -1.171425         0.087721
 O         2.486975        -0.535192        -1.103982
 C         1.580682         0.172737        -0.110066
 C         0.068053         0.247758        -0.340406
 C         2.277318         1.495243         0.112651
 O         3.539144         1.143912         0.789870
 C         3.384111        -0.175090         1.142205
 C         2.012056        -0.700236         1.031004
 H         3.576792        -3.067721        -0.781208
 H         4.907129        -1.998101        -0.476850
 H         4.155556        -3.055511         0.738482
 H        -0.339346         0.149025         0.672016
 H        -0.169740         1.278574        -0.570755
 H        -0.482068        -0.403000        -1.116375
 H         2.406709         2.169589        -0.782855
 H         1.823400         2.003383         0.915410
 H         4.133153        -0.334240         1.931775
 H         1.481700        -1.339717         1.808022
