19
Iteration:  3905charge 0 multiplicity 1
 C         3.505815        -2.604402         0.193051
 C         3.097721        -1.243924         0.243517
 O         2.491080        -0.691876        -0.970099
 C         1.585840         0.140792        -0.114156
 C         0.162011         0.149087        -0.492367
 C         2.320331         1.549141         0.032621
 O         3.649750         1.347657         0.445301
 C         3.570126         0.025184         1.094566
 C         2.140225        -0.576894         1.152983
 H         2.727386        -3.158282        -0.316204
 H         4.497278        -2.715928        -0.490063
 H         3.621925        -3.117691         1.129197
 H        -0.013014        -0.679122        -1.094760
 H        -0.507528        -0.057692         0.371743
 H         0.052323         1.101198        -1.028572
 H         2.271080         2.063938        -0.936863
 H         1.699376         2.224234         0.622439
 H         4.269728        -0.066847         1.873837
 H         1.602957        -0.757201         2.055778
