19
Iteration:  2537
 C         3.923543        -2.362058        -0.261894
 C         3.088545        -1.216050         0.101454
 O         2.301392        -0.649924        -0.984361
 C         1.571406         0.191798        -0.010060
 C         0.149531         0.258051        -0.607777
 C         2.188718         1.465406         0.209728
 O         3.565920         1.214072         0.853044
 C         3.542321        -0.152156         1.140156
 C         2.150090        -0.681148         1.153596
 H         3.251578        -3.201705        -0.436551
 H         4.617053        -2.199554        -1.130791
 H         4.558044        -2.623358         0.610986
 H        -0.595326        -0.379428        -0.196442
 H        -0.132643         1.272028        -0.626392
 H         0.164186        -0.048796        -1.687262
 H         2.325181         1.962541        -0.817543
 H         1.708550         2.144540         0.946426
 H         4.361850        -0.265719         1.849990
 H         1.539145        -1.142278         2.016067
