19
Iteration:   681
 C         3.849814        -2.548700        -0.018119
 C         3.184907        -1.174131         0.059712
 O         2.065105        -0.915353        -0.795917
 C         1.526399         0.200714         0.230702
 C         0.024088         0.053902         0.202705
 C         2.178325         1.506284        -0.221844
 O         3.556013         1.313446         0.079214
 C         3.754018         0.104735         0.676734
 C         2.471226        -0.362719         1.341608
 H         4.133319        -2.936876         0.918353
 H         2.941920        -3.224326        -0.308446
 H         4.719994        -2.565351        -0.676618
 H        -0.553449         0.749661        -0.471138
 H        -0.281434        -0.982581        -0.106972
 H        -0.298956         0.234343         1.221763
 H         1.956600         1.607590        -1.255851
 H         1.754641         2.306879         0.429901
 H         4.726050         0.104277         1.142447
 H         2.142812        -0.431248         2.417384
