19
Iteration:  2073charge 0 multiplicity 1
 C         3.714150        -2.582272        -0.160773
 C         3.114181        -1.210140         0.126731
 O         2.382526        -0.571646        -1.092296
 C         1.582983         0.170163        -0.017114
 C         0.165828         0.089512        -0.375287
 C         2.155380         1.549425         0.194058
 O         3.573537         1.349296         0.679507
 C         3.609304        -0.039245         1.076060
 C         2.229733        -0.656632         1.149299
 H         3.226501        -3.153248         0.582053
 H         3.378899        -2.895263        -1.146295
 H         4.752886        -2.641920        -0.134256
 H        -0.404274        -0.584813         0.269481
 H        -0.395914         1.026936        -0.382076
 H         0.211986        -0.414013        -1.392347
 H         2.336585         2.171618        -0.690363
 H         1.524405         2.130911         0.917922
 H         4.464650        -0.134901         1.808860
 H         1.800691        -1.195019         1.972620
