19
Iteration:  1219charge 0 multiplicity 1
 C         3.943556        -2.507855        -0.009006
 C         3.157904        -1.202364         0.275513
 O         2.064247        -0.900196        -0.742392
 C         1.465083         0.138572         0.147954
 C        -0.035008         0.176348         0.174919
 C         2.169821         1.391153        -0.390127
 O         3.583770         1.308582        -0.021979
 C         3.722625         0.108681         0.825731
 C         2.435911        -0.373185         1.394386
 H         4.861103        -2.660907         0.591647
 H         3.453701        -3.447473         0.048266
 H         4.385970        -2.342169        -1.029222
 H        -0.398569         0.986878        -0.521585
 H        -0.418716        -0.751783        -0.245468
 H        -0.458795         0.286868         1.223044
 H         2.111710         1.407573        -1.475580
 H         1.819539         2.360873         0.054451
 H         4.742626        -0.141331         1.257432
 H         2.251759        -0.418802         2.402450
