19
Iteration:  2797charge 0 multiplicity 1
 C         3.571813        -2.585478        -0.079659
 C         3.099455        -1.134714         0.159363
 O         2.623248        -0.491102        -0.948830
 C         1.629313         0.259890        -0.113882
 C         0.073780        -0.078207        -0.470751
 C         2.270915         1.650700         0.160505
 O         3.607814         1.233208         0.567688
 C         3.569088        -0.037571         1.135029
 C         2.081395        -0.666573         1.111752
 H         2.759368        -3.217412        -0.415457
 H         4.434266        -2.679740        -0.657700
 H         3.911938        -2.811710         0.932251
 H        -0.276217        -0.731406         0.367258
 H        -0.552671         0.799702        -0.457208
 H        -0.145994        -0.484616        -1.551015
 H         2.441145         2.267895        -0.683769
 H         1.806630         2.156672         1.097878
 H         4.070411        -0.357105         2.020788
 H         1.368844        -1.107290         1.730050
