19
Iteration:   394charge 0 multiplicity 1
 C         3.840396        -2.470690         0.011518
 C         3.111936        -1.163819         0.111109
 O         2.063658        -0.908448        -0.883038
 C         1.510764         0.150590         0.165385
 C        -0.066635         0.056047         0.152829
 C         2.173346         1.493786        -0.119489
 O         3.680523         1.357997         0.118278
 C         3.763342         0.057720         0.764392
 C         2.453065        -0.427402         1.239020
 H         4.731944        -2.454832         0.698338
 H         3.140426        -3.317684         0.161861
 H         4.245660        -2.671637        -0.927991
 H        -0.332593        -0.101661        -0.885358
 H        -0.361874        -0.866707         0.692822
 H        -0.480060         0.912365         0.705634
 H         2.024177         1.699753        -1.176218
 H         1.989893         2.318864         0.508470
 H         4.657199         0.055381         1.413592
 H         2.087078        -0.529039         2.247790
