19
Iteration:  3746charge 0 multiplicity 1
 C         3.639429        -2.634286        -0.014655
 C         3.038884        -1.251324         0.254880
 O         2.512503        -0.575963        -0.901967
 C         1.650247         0.191089        -0.132365
 C         0.179166         0.064461        -0.420777
 C         2.342038         1.629612        -0.032008
 O         3.612029         1.271912         0.526664
 C         3.500107        -0.076617         1.124471
 C         2.054190        -0.512399         1.162776
 H         2.901413        -3.194905        -0.706695
 H         4.591123        -2.446757        -0.333842
 H         3.712612        -3.327770         0.866044
 H        -0.400572         0.944398         0.039806
 H        -0.119667         0.065276        -1.481770
 H        -0.305859        -0.844921        -0.062498
 H         2.384092         2.087511        -1.048508
 H         1.606382         2.224960         0.528206
 H         4.215157        -0.095124         1.937790
 H         1.633479        -0.874670         2.075616
