19
Iteration:  4039charge 0 multiplicity 1
 C         3.661093        -2.548520         0.128972
 C         3.067278        -1.197662         0.185083
 O         2.443345        -0.654605        -0.980643
 C         1.621654         0.164608        -0.070910
 C         0.203326         0.167268        -0.529616
 C         2.308769         1.515842         0.043637
 O         3.661763         1.292441         0.530950
 C         3.462517        -0.117327         1.120784
 C         2.046518        -0.517402         1.172708
 H         2.926599        -3.338629         0.262784
 H         3.941187        -2.763262        -0.895587
 H         4.533200        -2.544451         0.799815
 H        -0.561847        -0.181506         0.249548
 H        -0.060836         1.157565        -0.772992
 H         0.141562        -0.393282        -1.438757
 H         2.495580         1.974386        -0.955148
 H         1.843881         2.174033         0.747201
 H         4.271095        -0.219027         1.838663
 H         1.388167        -1.075938         1.868518
