19
Iteration:  3937charge 0 multiplicity 1
 C         3.642748        -2.593254         0.329791
 C         3.097791        -1.214404         0.111008
 O         2.520310        -0.599801        -1.051429
 C         1.633656         0.152770        -0.138648
 C         0.044566         0.207072        -0.379108
 C         2.321367         1.569394        -0.023287
 O         3.584618         1.189774         0.471614
 C         3.539939        -0.090447         1.114416
 C         2.111368        -0.544724         1.069354
 H         3.066276        -3.291625        -0.225270
 H         4.763137        -2.629460         0.042340
 H         3.542280        -2.933987         1.324234
 H        -0.266878        -0.496442        -1.072844
 H        -0.509736         0.115535         0.586279
 H        -0.286250         1.162618        -0.823050
 H         2.609363         1.986344        -0.979741
 H         1.862806         2.326084         0.616976
 H         4.215348        -0.115821         1.920259
 H         1.683425        -0.807167         1.988661
