19
Iteration:    44charge 0 multiplicity 1
 C         3.954737        -2.263928        -0.137707
 C         3.057861        -1.178284         0.266302
 O         2.051241        -0.974265        -0.743698
 C         1.443487         0.071379         0.143894
 C        -0.060869         0.204488         0.151614
 C         2.380981         1.411629        -0.351674
 O         3.735453         1.229322         0.114259
 C         3.649331         0.099053         0.848940
 C         2.273839        -0.462358         1.340338
 H         4.795393        -2.113948         0.519174
 H         3.606901        -3.275093        -0.174251
 H         4.283692        -1.985596        -1.156616
 H        -0.462321         1.217034         0.137555
 H        -0.566228        -0.230373        -0.692413
 H        -0.472314        -0.388792         0.957671
 H         2.378882         1.435285        -1.440513
 H         1.948684         2.282037         0.111098
 H         4.529256        -0.119821         1.490869
 H         2.019951        -0.902055         2.289752
