19
Iteration:  4239charge 0 multiplicity 1
 C         3.583367        -2.592648         0.104314
 C         3.128976        -1.162671         0.177341
 O         2.411779        -0.619592        -0.967679
 C         1.624300         0.243124        -0.050903
 C         0.181946         0.053423        -0.539826
 C         2.323932         1.560718         0.014630
 O         3.631082         1.263574         0.576811
 C         3.565716        -0.006213         1.133122
 C         2.091715        -0.598886         1.115599
 H         2.612702        -3.140470         0.282213
 H         3.926324        -2.683742        -0.890888
 H         4.337018        -3.053365         0.747647
 H        -0.485481         0.316339         0.291022
 H        -0.133070         0.703541        -1.417240
 H        -0.051514        -1.006684        -0.730737
 H         2.481352         1.935155        -1.018614
 H         1.749705         2.392637         0.594625
 H         4.273444        -0.156667         1.997188
 H         1.661414        -0.972367         2.063560
