19
Iteration:  1312
 C         3.691042        -2.554705         0.255131
 C         3.090862        -1.121705         0.144928
 O         2.217416        -0.739940        -0.907391
 C         1.579577         0.143524         0.049519
 C         0.060697        -0.101583         0.341043
 C         2.193980         1.508692        -0.209218
 O         3.604123         1.271044        -0.101622
 C         3.753694         0.147183         0.713637
 C         2.323667        -0.329544         1.209918
 H         3.906038        -2.762164         1.377231
 H         3.102319        -3.485657        -0.087138
 H         4.694365        -2.435628        -0.185906
 H        -0.643411         0.632895        -0.114064
 H        -0.231054        -1.129635        -0.037455
 H         0.032172        -0.156793         1.424366
 H         1.944007         1.885615        -1.215287
 H         1.852815         2.098562         0.618238
 H         4.752471         0.034652         1.181410
 H         2.168736        -0.879511         2.207454
