19
Iteration:  4540
 C         3.890877        -2.484152        -0.226622
 C         3.101156        -1.255445         0.177037
 O         2.380516        -0.772088        -0.926361
 C         1.572456         0.207310        -0.030678
 C         0.098149         0.220676        -0.555214
 C         2.416068         1.549031        -0.023939
 O         3.652005         1.169662         0.684043
 C         3.382295        -0.043813         1.242231
 C         1.970712        -0.475225         1.236418
 H         3.407288        -3.118008        -0.912694
 H         4.964344        -2.210092        -0.497660
 H         4.079916        -3.092109         0.749528
 H         0.033763        -0.301739        -1.573964
 H        -0.617636        -0.393014        -0.044893
 H        -0.317394         1.280792        -0.364811
 H         2.611573         1.996293        -0.986136
 H         1.970762         2.323905         0.556951
 H         3.907395        -0.218455         2.152998
 H         1.309161        -0.661701         2.090633
