19
Iteration:  2048
 C         3.536350        -2.659410        -0.192461
 C         3.272482        -1.120905         0.079125
 O         2.447799        -0.542156        -1.018944
 C         1.597476         0.179005        -0.009750
 C         0.089054        -0.041892        -0.367406
 C         2.212433         1.584106         0.096993
 O         3.511315         1.386480         0.743111
 C         3.649759        -0.039693         1.017680
 C         2.265288        -0.609936         1.172188
 H         2.615073        -3.029061         0.186978
 H         3.839057        -2.942731        -1.230147
 H         4.346537        -3.025670         0.480794
 H        -0.234376        -1.063376        -0.061149
 H        -0.561131         0.613741         0.234993
 H        -0.060869         0.054162        -1.438709
 H         2.387999         2.161270        -0.802069
 H         1.602733         2.140289         0.797946
 H         4.435505        -0.178969         1.768699
 H         1.866350        -1.125742         2.037063
