19
Iteration:  2667
 C         3.933065        -2.433266        -0.135796
 C         3.147884        -1.217225         0.088059
 O         2.476606        -0.571817        -0.999248
 C         1.499127         0.169849        -0.028951
 C         0.130853         0.276819        -0.505599
 C         2.264245         1.546394         0.130348
 O         3.527853         1.166058         0.645113
 C         3.430190        -0.174924         1.147920
 C         2.055049        -0.702418         1.230463
 H         3.379576        -3.027874        -0.937878
 H         4.952947        -2.094003        -0.496028
 H         3.895361        -3.044034         0.810743
 H        -0.085370         1.021430        -1.268095
 H        -0.011685        -0.666618        -0.978637
 H        -0.514250         0.414072         0.429165
 H         2.438997         2.116153        -0.783389
 H         1.837150         2.288127         0.803099
 H         4.140900        -0.439415         2.012518
 H         1.418994        -1.067131         2.075865
