19
Iteration:  4278charge 0 multiplicity 1
 C         3.514524        -2.654490        -0.017609
 C         3.081493        -1.124378         0.317407
 O         2.516209        -0.584464        -0.904311
 C         1.602763         0.214116        -0.124636
 C         0.276617         0.042174        -0.527037
 C         2.293334         1.508748        -0.018792
 O         3.586954         1.191100         0.525870
 C         3.552827         0.005060         1.128620
 C         2.061774        -0.434364         1.198797
 H         2.738498        -3.399923        -0.136164
 H         3.949234        -2.664608        -1.093423
 H         4.366953        -2.958850         0.664677
 H        -0.113466        -0.206462         0.530852
 H        -0.391440         0.793119        -0.806270
 H         0.322604        -0.776826        -1.241996
 H         2.372758         1.962821        -1.030593
 H         1.857284         2.243073         0.634939
 H         4.117277        -0.196709         2.033584
 H         1.584678        -0.583613         2.136440
