19
Iteration:  4088charge 0 multiplicity 1
 C         3.620931        -2.692059         0.167777
 C         3.090998        -1.186798         0.188926
 O         2.496339        -0.549032        -1.077187
 C         1.639854         0.223647        -0.092159
 C         0.221102         0.155318        -0.424303
 C         2.219856         1.556957        -0.003144
 O         3.567466         1.266893         0.583717
 C         3.529340        -0.056734         1.088292
 C         2.104553        -0.640954         1.141740
 H         2.804294        -3.398441        -0.094390
 H         4.415587        -2.927571        -0.615836
 H         3.986820        -2.781109         1.191866
 H        -0.308011         0.876934         0.149235
 H         0.139867         0.625048        -1.494868
 H        -0.217641        -0.866651        -0.496732
 H         2.522779         2.142876        -0.860217
 H         1.826368         2.315711         0.727777
 H         4.362303        -0.221529         1.820359
 H         1.380739        -0.965507         1.875468
