19
Iteration:  2045charge 0 multiplicity 1
 C         3.549133        -2.648152        -0.190807
 C         3.259807        -1.144529         0.076165
 O         2.452432        -0.526709        -1.030634
 C         1.572263         0.176098        -0.028618
 C         0.102745        -0.041463        -0.345355
 C         2.194264         1.579760         0.095281
 O         3.525572         1.376840         0.738576
 C         3.660880        -0.033996         1.037215
 C         2.266520        -0.601209         1.181161
 H         2.518309        -3.000828         0.134161
 H         3.855515        -2.883077        -1.225765
 H         4.294358        -3.112565         0.556170
 H        -0.164037        -1.087509        -0.136451
 H        -0.606647         0.567852         0.234766
 H        -0.048868         0.118283        -1.399158
 H         2.445252         2.108619        -0.846821
 H         1.546253         2.140649         0.766803
 H         4.434258        -0.130433         1.734828
 H         1.867939        -1.152495         2.071775
