19
Iteration:  2834charge 0 multiplicity 1
 C         3.674085        -2.506646        -0.121575
 C         3.029189        -1.218393         0.138576
 O         2.418450        -0.603018        -0.959288
 C         1.572174         0.204722        -0.010595
 C         0.245505         0.076329        -0.533010
 C         2.283719         1.562412         0.076623
 O         3.617729         1.243478         0.630780
 C         3.502805        -0.063424         1.136838
 C         2.118732        -0.558874         1.213740
 H         3.195549        -3.350889        -0.630683
 H         4.792684        -2.446316        -0.430306
 H         3.624496        -2.923589         0.910829
 H         0.164510        -0.990040        -0.715262
 H        -0.514529         0.387636         0.234781
 H         0.146671         0.481418        -1.508449
 H         2.329423         2.064448        -0.955718
 H         1.853377         2.298930         0.762650
 H         4.348480        -0.228369         1.851514
 H         1.416059        -0.894344         2.049210
