19
Iteration:  4675charge 0 multiplicity 1
 C         3.640440        -2.566542        -0.211981
 C         3.123958        -1.164137         0.215986
 O         2.532672        -0.509739        -0.952997
 C         1.563453         0.181584         0.008418
 C         0.139228         0.073213        -0.553827
 C         2.276195         1.507000         0.073030
 O         3.593803         1.269555         0.681139
 C         3.490823        -0.034328         1.173401
 C         2.128113        -0.645450         1.260547
 H         2.605356        -3.002759        -0.579217
 H         4.164956        -2.556774        -1.170062
 H         4.161964        -3.144746         0.526374
 H        -0.732821         0.251775         0.098099
 H         0.177479         0.751359        -1.578099
 H         0.128592        -0.875462        -1.084386
 H         2.602185         1.904673        -0.901704
 H         1.657858         2.283100         0.540538
 H         4.240954        -0.331265         1.887212
 H         1.679501        -1.050290         2.156295
