19
Iteration:   677charge 0 multiplicity 1
 C         3.857414        -2.513611        -0.004646
 C         3.165729        -1.166919         0.035909
 O         2.046596        -0.942681        -0.775024
 C         1.548304         0.186277         0.230570
 C         0.036118         0.112623         0.212206
 C         2.136797         1.483166        -0.209297
 O         3.556325         1.327916         0.086465
 C         3.755645         0.082939         0.669772
 C         2.493585        -0.391558         1.322314
 H         4.176122        -2.901191         1.006552
 H         3.102598        -3.225610        -0.410169
 H         4.737271        -2.485835        -0.652922
 H        -0.422464         0.736011        -0.539784
 H        -0.294489        -0.798384        -0.210243
 H        -0.358106         0.242351         1.226981
 H         2.013668         1.542253        -1.317830
 H         1.648264         2.293041         0.284533
 H         4.659238        -0.036430         1.256489
 H         2.210865        -0.452625         2.395291
