19
Iteration:    85
 C         3.922449        -2.581790        -0.069681
 C         3.111671        -1.274203         0.207685
 O         2.203946        -0.894637        -0.744612
 C         1.538641         0.147796         0.175794
 C        -0.023973         0.230176         0.088048
 C         2.164235         1.456789        -0.234663
 O         3.542481         1.416716         0.149014
 C         3.662431         0.080887         0.700447
 C         2.376052        -0.507381         1.348610
 H         4.668513        -2.696289         0.668546
 H         3.388853        -3.479158        -0.336135
 H         4.572966        -2.370192        -1.043698
 H        -0.187814         1.302111        -0.289285
 H        -0.467119        -0.438631        -0.670588
 H        -0.421902        -0.080333         1.065457
 H         2.082260         1.515065        -1.360236
 H         1.770483         2.380076         0.252483
 H         4.436706         0.175204         1.420503
 H         2.236844        -0.698933         2.339909
