19
Iteration:  3875charge 0 multiplicity 1
 C         3.610875        -2.638756         0.067297
 C         3.145223        -1.229379         0.254685
 O         2.368615        -0.638090        -0.835858
 C         1.552885         0.256367        -0.081898
 C         0.179668         0.097733        -0.584860
 C         2.362602         1.580573        -0.068806
 O         3.630556         1.289381         0.496577
 C         3.572157        -0.105321         1.116222
 C         2.112757        -0.460701         1.277762
 H         2.688453        -3.270875        -0.063827
 H         4.014784        -2.765485        -0.954676
 H         4.305964        -2.986182         0.828907
 H         0.165093        -1.006209        -0.765266
 H        -0.613611         0.372144         0.174388
 H         0.064371         0.624420        -1.532677
 H         2.460174         1.876169        -1.172776
 H         1.672182         2.281249         0.471674
 H         4.436104        -0.269378         1.734822
 H         1.440370        -0.681206         2.068031
