19
Iteration:   422charge 0 multiplicity 1
 C         3.981394        -2.411821        -0.160061
 C         3.130851        -1.239251         0.216063
 O         2.029860        -0.918017        -0.707103
 C         1.552637         0.082999         0.171799
 C         0.090185         0.328211         0.118647
 C         2.094391         1.408006        -0.328847
 O         3.507115         1.316232         0.151882
 C         3.702700         0.021414         0.797644
 C         2.446711        -0.535168         1.383127
 H         4.780651        -2.793742         0.536085
 H         3.421025        -3.377795        -0.319547
 H         4.564733        -2.032240        -1.129100
 H        -0.131379         0.313142        -0.977881
 H        -0.510663        -0.491856         0.526457
 H         0.026493         1.342804         0.532411
 H         1.905795         1.465759        -1.470749
 H         1.687412         2.381122         0.168296
 H         4.616497         0.087220         1.289204
 H         2.096319        -0.536184         2.463782
