19
Iteration:   252charge 0 multiplicity 1
 C         4.075045        -2.264068        -0.021480
 C         3.094909        -1.143200         0.148468
 O         2.067260        -0.922069        -0.883721
 C         1.454040         0.057983         0.070575
 C        -0.015507         0.323631         0.326762
 C         2.251839         1.300790        -0.199316
 O         3.657565         1.179783        -0.007222
 C         3.624153         0.056388         0.859110
 C         2.261691        -0.489941         1.245713
 H         4.871935        -2.190239         0.813225
 H         3.634037        -3.295166         0.044720
 H         4.630645        -2.320024        -0.928265
 H        -0.360761         0.886359        -0.525769
 H        -0.561496        -0.643393         0.441047
 H         0.038741         0.838933         1.305964
 H         1.929951         1.600258        -1.194132
 H         1.966053         2.057747         0.596282
 H         4.543597        -0.082465         1.310169
 H         1.793550        -0.494164         2.326635
