19
Iteration:  1160charge 0 multiplicity 1
 C         3.868091        -2.564880         0.174202
 C         3.121603        -1.219923         0.173662
 O         2.140680        -0.872798        -0.844984
 C         1.469938         0.179293         0.122287
 C        -0.005270         0.076850         0.246176
 C         2.198144         1.502372        -0.182774
 O         3.572653         1.375802        -0.007084
 C         3.777075         0.053514         0.686710
 C         2.406461        -0.429944         1.159401
 H         4.839657        -2.205163         0.507954
 H         3.407188        -3.254232         0.908776
 H         3.901272        -3.040822        -0.783729
 H        -0.386659        -0.097762        -0.754934
 H        -0.159332        -0.806304         0.898941
 H        -0.492998         0.991622         0.547377
 H         1.948989         1.844717        -1.220076
 H         1.819768         2.370892         0.506248
 H         4.669737        -0.005407         1.286062
 H         2.050117        -0.422153         2.274020
