19
Iteration:  3610charge 0 multiplicity 1
 C         3.829540        -2.399702         0.004837
 C         2.935882        -1.240707         0.173234
 O         2.436726        -0.637360        -0.946043
 C         1.655845         0.244333        -0.039071
 C         0.142842         0.172929        -0.463241
 C         2.426890         1.532489        -0.067885
 O         3.621741         1.186622         0.650209
 C         3.437065        -0.155603         1.076368
 C         1.957242        -0.574833         1.203518
 H         3.220520        -3.218915        -0.341397
 H         4.631331        -2.286379        -0.801479
 H         4.326159        -2.820316         0.874309
 H        -0.071875        -0.003040        -1.545910
 H        -0.264562        -0.694541         0.122290
 H        -0.464494         1.090222        -0.179039
 H         2.757313         1.761443        -1.116501
 H         1.809462         2.290275         0.441521
 H         4.215140        -0.370052         1.767891
 H         1.331315        -0.888604         1.981194
