19
Iteration:   444charge 0 multiplicity 1
 C         3.984862        -2.379416        -0.231994
 C         3.162796        -1.154690         0.209318
 O         2.076985        -0.997211        -0.706872
 C         1.452935         0.078632         0.184453
 C        -0.085897         0.342499         0.214809
 C         2.263482         1.284534        -0.321121
 O         3.618865         1.279951         0.084896
 C         3.657935         0.086721         0.846142
 C         2.343397        -0.434995         1.383948
 H         4.702226        -2.768639         0.554890
 H         3.501575        -3.279601        -0.693983
 H         4.760607        -1.860815        -0.988479
 H        -0.248352         0.617390        -0.848295
 H        -0.624422        -0.614966         0.319077
 H        -0.300405         1.187573         0.895506
 H         2.399777         1.355745        -1.425745
 H         1.780817         2.275239         0.028056
 H         4.523984         0.078992         1.386158
 H         2.053090        -0.812267         2.412509
