19
Iteration:  1711charge 0 multiplicity 1
 C         3.665879        -2.521242        -0.048593
 C         3.224069        -1.129140         0.066392
 O         2.244382        -0.731723        -0.917415
 C         1.526467         0.075173         0.126379
 C         0.061815         0.099764        -0.185127
 C         2.120504         1.446812         0.050670
 O         3.573498         1.402237         0.350459
 C         3.740608         0.021745         0.902051
 C         2.410975        -0.548893         1.222908
 H         4.228714        -2.513937        -0.969736
 H         4.483720        -2.865887         0.680836
 H         2.836649        -3.282556        -0.102529
 H        -0.258720        -0.693214        -0.860940
 H        -0.334454        -0.046704         0.831877
 H        -0.245824         1.069884        -0.514041
 H         1.965073         1.866878        -0.982236
 H         1.467173         1.979594         0.879951
 H         4.748804        -0.096137         1.433079
 H         2.068612        -0.877553         2.167906
