19
Iteration:  4662charge 0 multiplicity 1
 C         3.541323        -2.620201        -0.168529
 C         3.142416        -1.191817         0.150232
 O         2.562494        -0.474670        -0.969344
 C         1.532382         0.229303        -0.011799
 C         0.103753         0.026245        -0.626091
 C         2.270299         1.611750         0.064838
 O         3.609614         1.275291         0.695460
 C         3.554257        -0.039198         1.239798
 C         2.180402        -0.699055         1.219418
 H         2.716934        -3.368150        -0.182910
 H         4.137055        -2.516061        -1.068729
 H         4.262963        -3.066129         0.550160
 H        -0.590696        -0.174061         0.208008
 H        -0.391120         0.959912        -1.154464
 H         0.147055        -0.926156        -1.218932
 H         2.328259         1.911907        -0.986184
 H         1.907987         2.409592         0.771696
 H         4.284597        -0.110958         2.105077
 H         1.604022        -1.129138         2.067772
