19
Iteration:   579charge 0 multiplicity 1
 C         3.642210        -2.557580         0.014952
 C         3.199065        -1.181431         0.154703
 O         2.108591        -0.694393        -0.809005
 C         1.507659         0.113567         0.211288
 C         0.043251        -0.181660         0.167558
 C         2.226498         1.562125        -0.158996
 O         3.646504         1.329110        -0.012012
 C         3.747108         0.114169         0.713779
 C         2.463409        -0.363416         1.296138
 H         4.632191        -2.638280         0.616221
 H         2.881366        -3.337024         0.231202
 H         3.863433        -2.714543        -1.071472
 H        -0.383019        -0.328568        -0.847372
 H        -0.205204        -1.069959         0.770653
 H        -0.438947         0.652511         0.712923
 H         1.981639         1.758112        -1.236847
 H         1.881428         2.415482         0.452881
 H         4.621346         0.076361         1.469604
 H         2.182156        -0.438997         2.344505
