19
Iteration:  2547charge 0 multiplicity 1
 C         3.856188        -2.425226        -0.273817
 C         3.076044        -1.165261         0.053517
 O         2.363751        -0.619006        -0.998246
 C         1.558849         0.180737         0.006570
 C         0.145513         0.164300        -0.627717
 C         2.274074         1.546015         0.197069
 O         3.615100         1.231489         0.826279
 C         3.486761        -0.115791         1.217916
 C         2.127100        -0.669376         1.183112
 H         3.262595        -3.397327        -0.500305
 H         4.408317        -2.211045        -1.252681
 H         4.593493        -2.511096         0.569360
 H        -0.335538        -0.611858        -0.069741
 H        -0.509916         0.993995        -0.438818
 H         0.238991        -0.094322        -1.701242
 H         2.201367         2.226339        -0.696416
 H         1.534438         1.983560         0.953146
 H         4.161964        -0.646847         1.849294
 H         1.539391        -1.118073         2.086427
