19
Iteration:   853
 C         3.948342        -2.363056        -0.046932
 C         3.033297        -1.192662         0.251367
 O         2.017633        -0.903973        -0.797891
 C         1.486002         0.176441         0.109347
 C         0.000230         0.052919         0.286708
 C         2.238224         1.505191        -0.284406
 O         3.744161         1.231084        -0.063053
 C         3.672834         0.034116         0.748144
 C         2.371637        -0.392372         1.394933
 H         4.216279        -2.845757         0.838676
 H         3.519648        -3.204623        -0.748957
 H         4.845995        -2.023130        -0.522233
 H        -0.591663         0.798325        -0.313314
 H        -0.183733        -1.002834         0.150241
 H        -0.514452         0.268808         1.261356
 H         2.098177         1.679308        -1.401320
 H         1.775589         2.409547         0.306271
 H         4.679471        -0.059635         1.364128
 H         2.001736        -0.513421         2.429383
