19
Iteration:  2860charge 0 multiplicity 1
 C         3.822774        -2.561373        -0.027393
 C         3.182859        -1.256286         0.234735
 O         2.441730        -0.718612        -1.011516
 C         1.513732         0.129055        -0.133391
 C         0.048678         0.356927        -0.492830
 C         2.280518         1.508697         0.012371
 O         3.545407         1.292541         0.698793
 C         3.547657        -0.033285         1.104681
 C         2.143410        -0.635489         1.168706
 H         3.105450        -3.278345        -0.528228
 H         4.734220        -2.449035        -0.590935
 H         3.963688        -3.234448         0.844412
 H        -0.288915        -0.445875        -1.159139
 H        -0.445551         0.259372         0.451584
 H        -0.155434         1.346306        -0.961890
 H         2.418572         1.961992        -0.958018
 H         1.810706         2.219992         0.684132
 H         4.172291        -0.163580         1.965966
 H         1.468622        -0.905834         1.971896
