19
Iteration:  2203
 C         3.660612        -2.536819        -0.235405
 C         3.201239        -1.110846         0.023001
 O         2.598750        -0.410571        -1.047720
 C         1.592772         0.138781        -0.105120
 C         0.136951         0.052769        -0.385391
 C         2.178598         1.558250         0.241441
 O         3.504815         1.268869         0.868061
 C         3.544249        -0.105309         1.097587
 C         2.078535        -0.751973         1.067362
 H         4.379603        -2.621605        -1.083447
 H         4.121763        -2.912855         0.745824
 H         2.783191        -3.170173        -0.555558
 H        -0.188906         0.965265        -0.853541
 H         0.076932        -0.787329        -1.086807
 H        -0.466583        -0.228352         0.525313
 H         2.337857         2.114524        -0.666763
 H         1.706539         2.198605         1.031042
 H         4.403958        -0.240519         1.706492
 H         1.528941        -1.382322         1.792204
