19
Iteration:   143
 C         3.526886        -2.684866         0.230356
 C         3.143050        -1.197761         0.094837
 O         2.345955        -0.576085        -1.039852
 C         1.547154         0.244926         0.020322
 C         0.122206        -0.234426         0.244099
 C         2.116908         1.659555         0.017334
 O         3.552049         1.284579         0.028258
 C         3.811333         0.150096         0.735386
 C         2.437510        -0.458119         1.165956
 H         4.029949        -2.874402         1.224530
 H         2.613042        -3.290784         0.278523
 H         4.160848        -2.940168        -0.576400
 H        -0.622372         0.065765        -0.441414
 H         0.042821        -1.307755         0.144402
 H        -0.382887         0.103087         1.138271
 H         1.883751         2.220299        -0.881539
 H         1.740368         2.177676         0.909700
 H         4.860451         0.121073         1.206801
 H         1.901388        -0.756587         2.167234
