19
Iteration:  4568charge 0 multiplicity 1
 C         3.801547        -2.436343        -0.091751
 C         3.018219        -1.261471         0.235548
 O         2.435198        -0.640914        -0.926757
 C         1.602217         0.143749        -0.026995
 C         0.170062         0.316279        -0.557090
 C         2.310236         1.478191        -0.041486
 O         3.549344         1.191144         0.669605
 C         3.521403        -0.076741         1.144197
 C         2.066131        -0.648343         1.187702
 H         3.243744        -3.214332        -0.706104
 H         4.716629        -1.952608        -0.400010
 H         4.054528        -3.064683         0.756105
 H        -0.137034        -0.366396        -1.353130
 H        -0.588461         0.159003         0.250878
 H         0.057808         1.311711        -0.986272
 H         2.522100         1.894832        -1.064901
 H         1.821237         2.248880         0.642568
 H         4.226778        -0.215421         1.975134
 H         1.501105        -1.198572         1.923082
