19
Iteration:  3428charge 0 multiplicity 1
 C         3.818365        -2.580045         0.055092
 C         2.981370        -1.240089         0.132362
 O         2.400841        -0.728264        -0.996551
 C         1.661293         0.207894        -0.111485
 C         0.223818         0.319124        -0.444279
 C         2.306344         1.490466        -0.014948
 O         3.480042         1.345965         0.736606
 C         3.488810        -0.030296         1.108173
 C         2.123958        -0.671302         1.096578
 H         3.181412        -3.545726        -0.243443
 H         4.579478        -2.471432        -0.728456
 H         4.259517        -2.690079         1.042230
 H         0.264731         0.824556        -1.388180
 H        -0.224044        -0.676626        -0.678679
 H        -0.291759         0.958259         0.291213
 H         2.555790         1.710358        -1.107612
 H         1.640928         2.228272         0.524990
 H         4.165991        -0.473985         1.828701
 H         1.571642        -1.098979         1.882102
