19
Iteration:  1736
 C         3.875536        -2.510205        -0.162315
 C         3.115834        -1.213336         0.136005
 O         2.276687        -0.749175        -0.962981
 C         1.511815         0.166201         0.108391
 C         0.042524         0.105047        -0.058566
 C         2.270197         1.567751        -0.047078
 O         3.556598         1.325221         0.384231
 C         3.582062         0.000490         0.932825
 C         2.262216        -0.570504         1.273637
 H         3.892928        -2.763148        -1.246830
 H         4.983216        -2.468909         0.072609
 H         3.499071        -3.385069         0.365239
 H        -0.285767        -0.906577        -0.330294
 H        -0.276842         0.294190         0.943036
 H        -0.330393         0.884687        -0.721751
 H         2.388647         1.738871        -1.154160
 H         1.604693         2.359864         0.475715
 H         4.464381         0.053601         1.509633
 H         1.849321        -0.973830         2.263611
