19
Iteration:  2775
 C         3.599770        -2.641825        -0.044705
 C         3.178895        -1.176208         0.170462
 O         2.541467        -0.537358        -1.072201
 C         1.600771         0.146964        -0.101812
 C         0.233665         0.144327        -0.439453
 C         2.144618         1.512562         0.114502
 O         3.519968         1.299615         0.704063
 C         3.500637        -0.011048         1.115909
 C         2.200618        -0.594574         1.092685
 H         2.713360        -3.253460        -0.227483
 H         4.263525        -2.789630        -0.838423
 H         4.190666        -2.986654         0.807204
 H        -0.383364        -0.188040         0.430125
 H        -0.127786         1.081387        -0.818685
 H         0.121154        -0.632738        -1.310710
 H         2.136976         2.160889        -0.724055
 H         1.715313         1.986753         1.060347
 H         4.188441        -0.465464         1.820449
 H         1.747084        -1.066095         1.915566
