19
Iteration:  1507charge 0 multiplicity 1
 C         3.618036        -2.574200         0.038147
 C         3.179470        -1.162854         0.179047
 O         2.233477        -0.744332        -0.840082
 C         1.606297         0.122530         0.132836
 C        -0.005795        -0.142822         0.059439
 C         2.167329         1.626719        -0.090255
 O         3.600339         1.322878         0.040185
 C         3.773714         0.148939         0.796137
 C         2.455355        -0.423886         1.273215
 H         3.240477        -2.808615        -0.954398
 H         4.708659        -2.802757         0.021685
 H         3.036020        -3.135739         0.733052
 H        -0.421116         0.244947         1.044222
 H        -0.554735         0.325442        -0.803255
 H        -0.163839        -1.234305         0.186305
 H         1.939496         1.886138        -1.152207
 H         1.673488         2.383733         0.561877
 H         4.676838         0.081493         1.420825
 H         2.046123        -0.730020         2.178326
