19
Iteration:  4055charge 0 multiplicity 1
 C         3.627480        -2.562633         0.218340
 C         3.050024        -1.149450         0.201630
 O         2.481512        -0.671745        -1.074756
 C         1.603161         0.250001        -0.167886
 C         0.067681         0.156237        -0.516004
 C         2.316073         1.626112         0.061432
 O         3.624106         1.202802         0.603847
 C         3.615790        -0.048893         1.089902
 C         2.111551        -0.632260         1.103413
 H         2.841400        -3.294862         0.550824
 H         4.120317        -2.799180        -0.761255
 H         4.466788        -2.727289         0.948207
 H        -0.449094        -0.080288         0.369470
 H        -0.280468         1.088828        -1.097765
 H        -0.171358        -0.753027        -1.142889
 H         2.510109         2.321804        -0.795452
 H         1.803817         2.079057         0.982681
 H         4.357279        -0.361790         1.840041
 H         1.466187        -1.041622         1.859890
