19
Iteration:   571charge 0 multiplicity 1
 C         3.623831        -2.647693         0.024684
 C         3.176841        -1.154999         0.156694
 O         2.133892        -0.697300        -0.812499
 C         1.564915         0.132716         0.194353
 C         0.009048        -0.210408         0.139036
 C         2.155060         1.586951        -0.101532
 O         3.651587         1.387785        -0.026538
 C         3.788116         0.134125         0.715814
 C         2.471388        -0.353204         1.297580
 H         4.486191        -2.952024         0.605872
 H         2.763103        -3.327600         0.404422
 H         3.815278        -2.948628        -0.974981
 H        -0.242641        -0.306730        -0.928188
 H        -0.080250        -1.097780         0.772651
 H        -0.666900         0.546214         0.553004
 H         1.885582         1.791653        -1.131276
 H         1.924740         2.530751         0.545083
 H         4.769637        -0.026668         1.137616
 H         2.356004        -0.501438         2.419937
