19
Iteration:  1286charge 0 multiplicity 1
 C         3.706348        -2.594538         0.309785
 C         3.210929        -1.192147         0.144069
 O         2.285555        -0.741769        -0.923350
 C         1.609593         0.167056         0.142671
 C         0.017930        -0.033470         0.321240
 C         2.089349         1.599935        -0.191402
 O         3.527409         1.239405        -0.142565
 C         3.731624         0.109463         0.704901
 C         2.406748        -0.397612         1.169837
 H         3.629080        -2.928724         1.319814
 H         2.975650        -3.261475        -0.276839
 H         4.738993        -2.665259        -0.089573
 H        -0.544656         0.837588        -0.100163
 H        -0.354791        -0.866303        -0.326640
 H        -0.129365        -0.312070         1.416515
 H         1.754172         1.891834        -1.220003
 H         1.731510         2.315338         0.627018
 H         4.604870         0.196482         1.324079
 H         2.367726        -0.478525         2.252198
