19
Iteration:  4348
 C         3.819372        -2.529784         0.228229
 C         3.051225        -1.278862         0.172137
 O         2.398467        -0.732108        -1.059656
 C         1.630201         0.157051        -0.088020
 C         0.117202         0.378658        -0.433288
 C         2.312629         1.543402        -0.001489
 O         3.606956         1.263559         0.548116
 C         3.460084        -0.053033         1.043968
 C         2.081840        -0.700479         1.132271
 H         3.509206        -3.419182        -0.386236
 H         4.806748        -2.336358        -0.060875
 H         3.876567        -2.676089         1.293378
 H        -0.452044         0.188139         0.410751
 H        -0.224726         1.438029        -0.578147
 H        -0.177783        -0.161716        -1.342977
 H         2.433910         1.837852        -1.043241
 H         1.760078         2.299947         0.479245
 H         4.172785        -0.126122         1.849712
 H         1.587911        -1.163430         2.026611
