19
Iteration:  4515charge 0 multiplicity 1
 C         3.849717        -2.422287        -0.028295
 C         2.950375        -1.260993         0.202262
 O         2.434455        -0.655091        -0.964219
 C         1.618229         0.293479        -0.067292
 C         0.142132         0.210636        -0.526637
 C         2.351390         1.524666        -0.019127
 O         3.631589         1.184885         0.661014
 C         3.447008        -0.140148         1.141990
 C         2.028578        -0.604755         1.191780
 H         3.155034        -3.085867        -0.608442
 H         4.861451        -2.205823        -0.528680
 H         4.032762        -3.041387         0.875761
 H        -0.063406         0.301710        -1.621670
 H        -0.213254        -0.827860        -0.394955
 H        -0.505944         0.822167         0.152455
 H         2.509663         1.882960        -1.067438
 H         1.867865         2.359810         0.515135
 H         4.231799        -0.476086         1.822500
 H         1.468792        -0.818975         2.092764
