19
Iteration:  2341charge 0 multiplicity 1
 C         3.961558        -2.355079        -0.156707
 C         3.098081        -1.187545         0.029350
 O         2.418837        -0.488258        -1.121253
 C         1.537288         0.251246        -0.034232
 C         0.132512         0.172370        -0.378979
 C         2.362808         1.505600         0.186851
 O         3.564379         1.128832         0.911657
 C         3.380879        -0.229883         1.057749
 C         2.005269        -0.712844         1.021088
 H         3.350316        -3.242656        -0.218214
 H         4.655387        -2.244102        -1.017967
 H         4.558400        -2.440271         0.761090
 H        -0.047614         0.682413        -1.354542
 H        -0.170645        -0.895797        -0.494530
 H        -0.627527         0.564707         0.393251
 H         2.425242         1.926204        -0.886895
 H         1.975336         2.260408         0.910803
 H         4.025988        -0.436942         1.888217
 H         1.430665        -1.154145         1.790817
