19
Iteration:  3831
 C         3.833894        -2.559702         0.108336
 C         3.119535        -1.223979         0.266351
 O         2.450949        -0.682914        -0.926308
 C         1.627437         0.182528        -0.183008
 C         0.049725         0.277750        -0.419799
 C         2.361507         1.547954        -0.072943
 O         3.624278         1.159088         0.537755
 C         3.482367        -0.065043         1.070920
 C         1.967424        -0.525677         1.141983
 H         3.112806        -3.391826         0.363167
 H         4.150759        -2.887758        -0.903888
 H         4.565091        -2.611285         0.876643
 H        -0.469467        -0.336694         0.328415
 H        -0.362665         1.306787        -0.147153
 H        -0.145437         0.014219        -1.469555
 H         2.465289         2.041600        -1.120398
 H         1.742006         2.262549         0.591150
 H         4.119869        -0.335841         1.862566
 H         1.371794        -0.696000         2.006755
