19
Iteration:  1170charge 0 multiplicity 1
 C         3.955113        -2.527261         0.153939
 C         3.101718        -1.252681         0.189488
 O         2.106535        -0.881889        -0.929953
 C         1.542049         0.158030         0.085446
 C         0.010192         0.121482         0.284882
 C         2.179887         1.522876        -0.226717
 O         3.578300         1.256990        -0.009671
 C         3.674842         0.105237         0.748575
 C         2.389995        -0.350561         1.212685
 H         4.985428        -2.349869         0.443873
 H         3.653834        -3.357749         0.874507
 H         4.036721        -2.968441        -0.830188
 H        -0.555224         0.019195        -0.628006
 H        -0.378133        -0.714738         0.896959
 H        -0.176100         0.955481         0.913493
 H         2.012038         1.861768        -1.288180
 H         1.896260         2.337076         0.534626
 H         4.349569         0.068223         1.548547
 H         2.014151        -0.588291         2.276945
