19
Iteration:  3275charge 0 multiplicity 1
 C         3.886147        -2.558991         0.135568
 C         3.138694        -1.257586         0.211602
 O         2.581857        -0.635708        -1.025068
 C         1.507765         0.278966        -0.192499
 C         0.044230         0.303211        -0.384269
 C         2.343800         1.556476        -0.031031
 O         3.596978         1.207465         0.615499
 C         3.385996        -0.134217         1.153797
 C         1.994826        -0.678622         1.032133
 H         3.119264        -3.431894         0.207745
 H         4.370429        -2.675452        -0.839648
 H         4.621928        -2.568685         0.958680
 H        -0.282823         1.159337        -1.067965
 H        -0.269687        -0.750897        -0.654348
 H        -0.399744         0.647418         0.644876
 H         2.476326         2.092000        -1.025826
 H         1.722634         2.268715         0.474757
 H         3.921789        -0.266697         2.090016
 H         1.298696        -1.140626         1.772601
