19
Iteration:  3065
 C         3.825239        -2.470704        -0.012075
 C         3.087471        -1.182040         0.298705
 O         2.502093        -0.648921        -0.931927
 C         1.581033         0.077069        -0.093020
 C         0.182679         0.372622        -0.513606
 C         2.287371         1.444418        -0.114034
 O         3.597818         1.169646         0.586696
 C         3.408606        -0.112917         1.229429
 C         1.974218        -0.574865         1.161335
 H         3.281537        -3.295133        -0.326086
 H         4.514184        -2.263226        -0.815671
 H         4.521899        -2.787563         0.770924
 H        -0.003528         1.444162        -0.823696
 H        -0.077445        -0.440289        -1.217936
 H        -0.547662         0.191542         0.314774
 H         2.279111         1.857511        -1.195444
 H         1.726258         2.254969         0.370475
 H         4.073692        -0.296595         2.113106
 H         1.525425        -1.050568         1.974620
