19
Iteration:  3810
 C         3.855318        -2.615841         0.195197
 C         3.089846        -1.267193         0.170230
 O         2.393016        -0.794906        -1.083585
 C         1.589373         0.242418        -0.054933
 C         0.084878         0.355721        -0.440113
 C         2.319205         1.542485         0.003793
 O         3.592932         1.304651         0.525541
 C         3.475888        -0.105276         1.114506
 C         2.084545        -0.590847         1.139610
 H         3.313587        -3.601231         0.251223
 H         4.457414        -2.651950        -0.661606
 H         4.482337        -2.596511         1.068736
 H        -0.640287         0.106200         0.370079
 H        -0.184655         1.437840        -0.608196
 H        -0.058912        -0.148589        -1.404753
 H         2.469888         2.036436        -1.017922
 H         1.855302         2.382028         0.538520
 H         4.048661        -0.420400         1.946456
 H         1.542675        -0.848655         2.016322
