19
Iteration:  3847charge 0 multiplicity 1
 C         3.673057        -2.496170         0.126278
 C         2.980499        -1.229722         0.230857
 O         2.482975        -0.674204        -0.995157
 C         1.539506         0.186265        -0.097166
 C         0.131397         0.193255        -0.455278
 C         2.385052         1.512968        -0.093380
 O         3.663503         1.199688         0.482283
 C         3.489078        -0.059722         1.228666
 C         2.112098        -0.508630         1.209542
 H         3.081193        -3.416041         0.144411
 H         3.883628        -2.423228        -0.980659
 H         4.682207        -2.481786         0.614166
 H        -0.350324        -0.740820        -0.075107
 H        -0.283518         1.094137        -0.050162
 H        -0.029675         0.133207        -1.542789
 H         2.519566         1.764523        -1.123798
 H         1.773081         2.168154         0.518318
 H         4.272853        -0.127219         2.042484
 H         1.433454        -0.963833         1.982017
