19
Iteration:   363
 C         3.589508        -2.559091         0.180529
 C         3.058596        -1.179373         0.088965
 O         2.305760        -0.662492        -0.975065
 C         1.565433         0.226098         0.094237
 C         0.145073        -0.195690         0.236106
 C         2.159095         1.589224        -0.045776
 O         3.535901         1.323606        -0.008658
 C         3.770015         0.086649         0.706787
 C         2.422014        -0.464396         1.239381
 H         4.454525        -2.510788         0.879756
 H         2.726249        -3.265914         0.548761
 H         3.856776        -2.956770        -0.786517
 H        -0.523424        -0.055747        -0.607655
 H         0.190520        -1.246148         0.559677
 H        -0.341533         0.325486         1.078972
 H         1.941343         1.994171        -1.043893
 H         1.990568         2.386628         0.709760
 H         4.759265         0.112742         1.313527
 H         2.011556        -0.799561         2.171373
