19
Iteration:  4185
 C         3.882597        -2.578746         0.106796
 C         3.142517        -1.186650         0.136100
 O         2.378057        -0.656372        -0.997723
 C         1.596968         0.158258        -0.076394
 C         0.054290         0.382942        -0.407100
 C         2.306353         1.510282        -0.022434
 O         3.621376         1.160644         0.537002
 C         3.456490        -0.094868         1.151122
 C         2.066158        -0.612822         1.098429
 H         3.340649        -3.459920        -0.378195
 H         4.922707        -2.560710        -0.149805
 H         3.833069        -2.728916         1.187173
 H        -0.228155         1.381336        -0.385292
 H        -0.051575         0.190869        -1.527158
 H        -0.568111        -0.378296         0.054211
 H         2.417940         2.116878        -0.928288
 H         1.679370         2.150330         0.676992
 H         4.041510        -0.088742         2.117827
 H         1.609266        -1.042527         1.975904
