19
Iteration:  1714
 C         3.667819        -2.505123        -0.045175
 C         3.214880        -1.129937         0.082729
 O         2.237702        -0.729047        -0.894355
 C         1.544668         0.089960         0.117990
 C         0.076539         0.107701        -0.170204
 C         2.102444         1.433821         0.006246
 O         3.563364         1.397982         0.364812
 C         3.745720         0.001963         0.916194
 C         2.418331        -0.561097         1.189810
 H         4.159040        -2.488111        -1.046421
 H         4.564727        -2.798162         0.566796
 H         2.968888        -3.312242        -0.071204
 H        -0.263185        -0.712112        -0.792463
 H        -0.362427        -0.004519         0.793388
 H        -0.221217         1.089835        -0.524781
 H         1.932671         1.928840        -0.986279
 H         1.551213         1.983945         0.847791
 H         4.663482        -0.184625         1.435869
 H         1.994137        -0.854833         2.189604
