19
Iteration:   305
 C         3.624502        -2.581570         0.062231
 C         3.146269        -1.119848         0.113152
 O         2.152235        -0.842395        -0.824339
 C         1.545264         0.080558         0.225869
 C         0.070763        -0.081182         0.175934
 C         2.094976         1.508304        -0.189483
 O         3.628863         1.413432         0.039233
 C         3.775521         0.149556         0.676610
 C         2.553712        -0.330042         1.318701
 H         4.040711        -3.083460         1.020576
 H         2.716009        -3.171603        -0.166353
 H         4.390509        -2.700350        -0.745027
 H        -0.314693         0.729372        -0.515291
 H        -0.182445        -0.852736        -0.599411
 H        -0.480201        -0.238500         1.186088
 H         1.899485         1.657958        -1.257236
 H         1.803896         2.353109         0.464915
 H         4.585432         0.036622         1.314939
 H         2.361713        -0.774452         2.364580
