19
Iteration:   821charge 0 multiplicity 1
 C         3.995146        -2.323609        -0.105366
 C         3.062478        -1.217546         0.256367
 O         2.156473        -0.841242        -0.785612
 C         1.508576         0.142994         0.087092
 C        -0.021377         0.212329         0.334026
 C         2.147633         1.432441        -0.314331
 O         3.640025         1.123611        -0.042494
 C         3.690807         0.000375         0.809037
 C         2.281447        -0.436311         1.344587
 H         4.596666        -2.551821         0.730960
 H         3.482163        -3.334522        -0.344883
 H         4.683875        -1.946323        -0.864865
 H        -0.570239         0.780560        -0.463940
 H        -0.432412        -0.795943         0.378745
 H        -0.127336         0.675915         1.321191
 H         2.182261         1.562938        -1.409047
 H         1.770703         2.375614         0.247312
 H         4.635727         0.158279         1.420808
 H         2.097846        -0.589873         2.395671
