19
Iteration:   528
 C         3.478080        -2.630323         0.193960
 C         3.282876        -1.113072         0.061643
 O         2.275829        -0.734030        -0.932362
 C         1.549559         0.082734         0.138743
 C         0.123186        -0.099391         0.176875
 C         2.058960         1.467329         0.046068
 O         3.562147         1.402596        -0.089854
 C         3.789067         0.208939         0.670175
 C         2.555680        -0.422184         1.261587
 H         4.092693        -2.844924         0.991874
 H         2.421899        -2.890212         0.430868
 H         3.594885        -3.239132        -0.641632
 H        -0.149264         0.177830        -0.850497
 H        -0.207382        -1.091901         0.462897
 H        -0.406838         0.589360         0.819354
 H         1.671291         2.041102        -0.763370
 H         1.633440         1.883019         0.970377
 H         4.752189         0.082929         1.140513
 H         2.200064        -0.730363         2.292620
