19
Iteration:  3078charge 0 multiplicity 1
 C         3.878887        -2.496045        -0.053295
 C         3.134296        -1.253966         0.263874
 O         2.430995        -0.755193        -0.879313
 C         1.589996         0.176352        -0.097985
 C         0.172164         0.367644        -0.615178
 C         2.306110         1.440252        -0.015130
 O         3.498111         1.209849         0.592853
 C         3.420966        -0.036584         1.169591
 C         2.066408        -0.605533         1.251609
 H         3.075069        -3.208121        -0.343332
 H         4.354392        -2.221891        -0.950820
 H         4.554840        -2.900359         0.721790
 H         0.171485         1.420438        -0.989108
 H        -0.160724        -0.082583        -1.470645
 H        -0.503261         0.291571         0.269237
 H         2.688984         1.629083        -1.076604
 H         1.735232         2.219326         0.535187
 H         4.048469        -0.242692         2.090911
 H         1.392382        -0.700438         2.080070
