19
Iteration:  4959
 C         3.941370        -2.401660        -0.386524
 C         3.132540        -1.224738         0.182609
 O         2.522887        -0.542642        -0.977197
 C         1.569468         0.191380        -0.067116
 C         0.094423         0.233221        -0.481201
 C         2.308508         1.599955         0.108468
 O         3.536633         1.175983         0.836969
 C         3.434886        -0.261398         1.197813
 C         1.954672        -0.692163         1.174379
 H         3.231013        -3.041571        -1.067846
 H         4.891347        -2.166480        -0.853115
 H         4.233243        -3.098017         0.449272
 H        -0.544793        -0.018213         0.371962
 H        -0.306667         1.246250        -1.047172
 H        -0.139003        -0.639942        -1.069908
 H         2.533616         2.210976        -0.782176
 H         1.667735         2.217019         0.716237
 H         4.106433        -0.456844         2.064536
 H         1.198190        -1.127269         1.849731
