19
Iteration:  3177
 C         3.607492        -2.592658         0.040490
 C         3.124276        -1.172797         0.183571
 O         2.651142        -0.629631        -1.030376
 C         1.641530         0.185644        -0.125237
 C         0.169036         0.086748        -0.450904
 C         2.260107         1.581004         0.061336
 O         3.516354         1.258822         0.646758
 C         3.528719        -0.049114         1.147870
 C         2.067665        -0.544491         1.057008
 H         2.870020        -2.901376        -0.701568
 H         4.481522        -2.755016        -0.470700
 H         3.567282        -3.110922         0.991485
 H        -0.188844         0.174265        -1.516904
 H        -0.217064        -0.793115         0.012809
 H        -0.255399         0.938256         0.210782
 H         2.181926         2.150793        -0.913415
 H         1.587105         2.206851         0.780067
 H         4.098790        -0.270509         2.011212
 H         1.473235        -1.040120         1.878282
