19
Iteration:     4charge 0 multiplicity 1
 C         3.777867        -2.520209         0.056251
 C         3.106200        -1.176192         0.172214
 O         2.158143        -0.810218        -0.813456
 C         1.529282         0.161604         0.122071
 C         0.052310         0.058155         0.145857
 C         2.189776         1.476372        -0.197623
 O         3.585099         1.267951         0.050416
 C         3.708936         0.085932         0.746237
 C         2.402581        -0.377076         1.266462
 H         4.503763        -2.686163         0.920841
 H         3.079575        -3.413838         0.159262
 H         4.387997        -2.574440        -0.813320
 H        -0.378226         0.681705         0.902000
 H        -0.226243         0.251901        -0.917164
 H        -0.160970        -0.993734         0.444303
 H         2.105280         1.795160        -1.242142
 H         1.849862         2.343617         0.441340
 H         4.667920         0.047961         1.332521
 H         2.117324        -0.684498         2.342421
