19
Iteration:  2180
 C         3.748573        -2.499978        -0.277385
 C         3.164719        -1.164084        -0.010176
 O         2.386982        -0.512200        -1.061633
 C         1.564488         0.143504         0.016285
 C         0.145145         0.138983        -0.469580
 C         2.220423         1.547443         0.116850
 O         3.459040         1.288084         0.927951
 C         3.622215        -0.124697         1.189059
 C         2.220008        -0.755158         1.105513
 H         4.777262        -2.381636        -0.687120
 H         3.723711        -3.152910         0.707019
 H         3.227426        -2.994913        -1.179619
 H        -0.154982         1.173759        -0.489152
 H         0.053807        -0.407610        -1.396662
 H        -0.459707        -0.383908         0.325648
 H         2.592313         1.940944        -0.825187
 H         1.623587         2.351857         0.696631
 H         4.201629        -0.131405         2.172390
 H         1.699478        -1.261201         1.893150
