19
Iteration:    98
 C         3.862714        -2.535281         0.035734
 C         3.138050        -1.232411         0.183664
 O         2.117099        -0.844077        -0.847351
 C         1.507598         0.148695         0.154530
 C        -0.028610         0.114430         0.078360
 C         2.149937         1.517549        -0.164769
 O         3.571265         1.379911         0.135894
 C         3.801365         0.054058         0.781943
 C         2.460738        -0.470419         1.237502
 H         4.427212        -2.874797         0.902323
 H         3.108112        -3.293220        -0.048367
 H         4.510931        -2.447274        -0.885221
 H        -0.563879         1.029654        -0.207419
 H        -0.208467        -0.715978        -0.606867
 H        -0.517372        -0.053971         1.036269
 H         2.018183         1.736090        -1.251195
 H         1.638981         2.329267         0.393586
 H         4.822931        -0.099264         1.263948
 H         2.093147        -0.748353         2.207876
