19
Iteration:  4447charge 0 multiplicity 1
 C         3.552197        -2.642487         0.151469
 C         3.107461        -1.211567         0.155413
 O         2.512192        -0.639656        -1.047863
 C         1.623081         0.147415        -0.147157
 C         0.234369         0.130183        -0.499455
 C         2.174988         1.599173         0.153778
 O         3.614902         1.357887         0.601657
 C         3.571846        -0.028902         1.081036
 C         2.153707        -0.610709         1.092451
 H         2.575809        -3.169861         0.313075
 H         4.074065        -2.802804        -0.760391
 H         4.137606        -3.027816         0.929296
 H        -0.251401         1.064928        -0.495536
 H         0.174334        -0.220993        -1.586766
 H        -0.279223        -0.532813         0.182219
 H         2.298009         2.261937        -0.724009
 H         1.653212         2.176888         0.922232
 H         4.277108        -0.175888         1.917489
 H         1.356049        -1.062429         1.703249
