19
Iteration:  1164charge 0 multiplicity 1
 C         3.902357        -2.559958         0.162195
 C         3.113881        -1.226705         0.202697
 O         2.125136        -0.879528        -0.887526
 C         1.482570         0.176489         0.116551
 C         0.001104         0.093305         0.261544
 C         2.204551         1.510422        -0.200016
 O         3.558993         1.337312        -0.008067
 C         3.734854         0.066799         0.707828
 C         2.412039        -0.400520         1.163774
 H         4.910727        -2.191454         0.524175
 H         3.554935        -3.278054         0.862400
 H         3.965884        -3.083284        -0.816870
 H        -0.454587        -0.118775        -0.747949
 H        -0.246884        -0.776321         0.892802
 H        -0.348269         1.067170         0.772691
 H         1.952929         1.856487        -1.183597
 H         1.948992         2.327330         0.462455
 H         4.572883        -0.022281         1.511596
 H         2.022226        -0.432964         2.167824
