19
Iteration:  3922charge 0 multiplicity 1
 C         3.588505        -2.620965         0.244218
 C         3.182720        -1.138774         0.227634
 O         2.483106        -0.651896        -1.019841
 C         1.614499         0.253940        -0.149255
 C         0.208959         0.213280        -0.406546
 C         2.253926         1.536356        -0.058016
 O         3.599608         1.191798         0.437332
 C         3.506244        -0.028880         1.085399
 C         2.127908        -0.564777         1.183287
 H         2.897667        -3.238342        -0.398646
 H         4.512498        -2.924847        -0.047922
 H         3.494052        -2.730393         1.376253
 H        -0.064862        -0.667168        -1.113556
 H        -0.286157         0.010734         0.544677
 H        -0.212777         1.177273        -0.778526
 H         2.276164         2.075018        -1.016535
 H         1.673236         2.041790         0.792735
 H         4.241553        -0.269080         1.906715
 H         1.412785        -1.315652         1.640737
