19
Iteration:  4067
 C         3.616066        -2.609333         0.247793
 C         3.171349        -1.252991         0.095079
 O         2.493201        -0.610962        -1.041328
 C         1.598195         0.237787        -0.198174
 C         0.082811         0.162345        -0.487231
 C         2.310382         1.538408         0.140104
 O         3.629464         1.275877         0.601304
 C         3.495515        -0.111013         1.046352
 C         2.120790        -0.538874         1.082040
 H         2.804912        -3.350079         0.391273
 H         4.173038        -2.977261        -0.710015
 H         4.291068        -2.556365         1.098367
 H        -0.451598         0.343874         0.414632
 H        -0.428585         0.957147        -1.176854
 H        -0.032844        -0.846623        -0.944632
 H         2.475606         2.164252        -0.789323
 H         1.667751         2.268535         0.802113
 H         4.142051        -0.232649         1.951847
 H         1.713061        -0.928413         1.999020
