19
Iteration:  3246
 C         3.824489        -2.455140        -0.010623
 C         3.038197        -1.248952         0.264298
 O         2.501290        -0.682556        -1.002586
 C         1.551917         0.160743        -0.193691
 C         0.202838         0.284778        -0.541473
 C         2.289324         1.459576         0.048440
 O         3.618430         1.215043         0.539009
 C         3.430653        -0.091666         1.216567
 C         2.012566        -0.583364         1.263856
 H         3.239385        -3.319049        -0.324791
 H         4.493017        -2.351593        -0.841215
 H         4.374472        -2.589021         0.880629
 H         0.003780         0.867786        -1.392266
 H        -0.418381        -0.638642        -0.682540
 H        -0.173399         0.791578         0.305184
 H         2.349994         2.008613        -0.859116
 H         1.651017         2.128621         0.794558
 H         4.114928        -0.198018         2.118205
 H         1.304089        -0.943172         1.964910
