19
Iteration:  1036
 C         4.011150        -2.496541         0.159523
 C         3.093668        -1.211114         0.142191
 O         2.013911        -0.908222        -0.873426
 C         1.505906         0.143441         0.154841
 C        -0.007113         0.218164         0.290151
 C         2.144088         1.428734        -0.302326
 O         3.610214         1.344675         0.106871
 C         3.764288         0.054827         0.619802
 C         2.372343        -0.432214         1.228922
 H         4.523937        -2.648602         1.142878
 H         3.370518        -3.404052         0.033644
 H         4.887125        -2.323318        -0.523265
 H        -0.350277         1.104595        -0.265766
 H        -0.428730        -0.720883        -0.060520
 H        -0.320381         0.347386         1.349440
 H         2.014465         1.409019        -1.426731
 H         1.586022         2.325834         0.200979
 H         4.767065        -0.232368         1.168533
 H         2.388626        -0.712950         2.225507
