19
Iteration:  2293
 C         3.956836        -2.393035        -0.367924
 C         3.224684        -1.197764         0.069431
 O         2.440799        -0.622871        -0.974342
 C         1.535030         0.051819         0.006135
 C         0.161055         0.359837        -0.474431
 C         2.217482         1.516375         0.186379
 O         3.486482         1.260615         0.877802
 C         3.418170        -0.251933         1.181974
 C         2.052560        -0.702413         1.100933
 H         3.383363        -2.580430        -1.329119
 H         4.975615        -2.160386        -0.603525
 H         3.885763        -3.257124         0.291219
 H         0.121090         0.261538        -1.592287
 H        -0.652483        -0.275387        -0.004016
 H        -0.195899         1.336553        -0.208870
 H         2.625661         1.807624        -0.796273
 H         1.468458         2.256677         0.523343
 H         4.217837        -0.357322         1.999677
 H         1.592286        -1.240368         1.966872
