19
Iteration:  3072charge 0 multiplicity 1
 C         3.855953        -2.497847        -0.022566
 C         3.116094        -1.189581         0.271254
 O         2.460260        -0.699556        -0.885428
 C         1.598700         0.133921        -0.117669
 C         0.201802         0.376379        -0.551693
 C         2.295553         1.435078        -0.056945
 O         3.531602         1.170695         0.585781
 C         3.407534        -0.053104         1.192088
 C         2.047305        -0.583199         1.211460
 H         3.139324        -3.326832        -0.338446
 H         4.446826        -2.080970        -0.936065
 H         4.569446        -2.915450         0.687291
 H         0.109133         1.405454        -0.891560
 H        -0.239830        -0.237182        -1.459924
 H        -0.521206         0.265520         0.241255
 H         2.421117         1.563437        -1.116143
 H         1.684564         2.203007         0.455476
 H         3.894231        -0.412797         2.058093
 H         1.403868        -0.873332         2.108605
