19
Iteration:  2770
 C         3.611240        -2.638942        -0.047414
 C         3.193555        -1.160706         0.132993
 O         2.511725        -0.572547        -1.033536
 C         1.651169         0.151791        -0.090754
 C         0.216487         0.166540        -0.472915
 C         2.122635         1.523369         0.114676
 O         3.493153         1.295758         0.734420
 C         3.560876         0.004329         1.071374
 C         2.182603        -0.637932         1.118383
 H         2.719990        -3.300988        -0.099229
 H         4.316085        -2.712144        -0.956266
 H         4.164505        -2.915530         0.870712
 H        -0.360604         0.015787         0.434857
 H        -0.066138         1.149844        -0.974703
 H         0.015815        -0.520718        -1.224988
 H         2.237992         2.150389        -0.829454
 H         1.608959         1.943471         0.959644
 H         4.216996        -0.477499         1.821647
 H         1.661098        -1.202508         1.984607
