19
Iteration:  2826charge 0 multiplicity 1
 C         3.656732        -2.538946        -0.075863
 C         3.018833        -1.136434         0.148178
 O         2.436325        -0.485236        -1.023685
 C         1.613457         0.246622         0.020642
 C         0.211912        -0.037534        -0.528488
 C         2.304134         1.517947         0.117589
 O         3.615827         1.206669         0.579611
 C         3.531116        -0.067590         1.137277
 C         2.109349        -0.562409         1.235206
 H         3.079488        -3.253587        -0.765128
 H         4.724956        -2.516804        -0.448212
 H         3.812551        -2.959506         0.921666
 H        -0.024306        -1.098927        -0.501721
 H        -0.577052         0.544968         0.018878
 H         0.213216         0.193381        -1.587624
 H         2.406348         2.002236        -0.874930
 H         1.885736         2.278348         0.757083
 H         4.061916        -0.493506         1.998530
 H         1.290046        -0.695643         2.050032
