19
Iteration:  2222charge 0 multiplicity 1
 C         3.690842        -2.559757        -0.205080
 C         3.123353        -1.130400         0.062083
 O         2.604146        -0.354108        -1.062093
 C         1.652102         0.254398        -0.114754
 C         0.117135         0.002931        -0.436777
 C         2.172822         1.542151         0.380548
 O         3.519119         1.237869         0.716725
 C         3.487339        -0.187783         1.175252
 C         2.189263        -0.688817         0.991253
 H         4.036389        -2.584147        -1.246816
 H         4.563784        -2.765664         0.513219
 H         2.837961        -3.301530        -0.063965
 H        -0.286208         0.612037        -1.258752
 H        -0.060827        -1.054102        -0.627634
 H        -0.517821         0.239182         0.439936
 H         2.085056         2.324340        -0.419876
 H         1.607921         1.993796         1.269239
 H         3.996931        -0.547634         2.110475
 H         1.631954        -1.240675         1.693190
