19
Iteration:   626
 C         4.084642        -2.381143        -0.064281
 C         3.143321        -1.290467         0.149852
 O         2.074116        -0.948658        -0.779729
 C         1.477194         0.098473         0.127652
 C        -0.000722         0.324163         0.361094
 C         2.210008         1.415942        -0.318081
 O         3.556865         1.253491         0.076788
 C         3.655085         0.059160         0.750342
 C         2.327420        -0.445811         1.219754
 H         4.552775        -2.475676         0.872135
 H         3.600486        -3.396850        -0.428823
 H         4.819644        -2.209737        -0.841326
 H        -0.380616         0.836116        -0.573816
 H        -0.669587        -0.579518         0.452708
 H        -0.099519         0.854068         1.308907
 H         2.006808         1.617380        -1.358910
 H         1.718458         2.265542         0.327443
 H         4.353342         0.041877         1.514548
 H         2.277389        -0.613220         2.357732
