19
Iteration:  3117charge 0 multiplicity 1
 C         3.765200        -2.469361         0.064458
 C         3.054352        -1.208524         0.150041
 O         2.314343        -0.691434        -1.010911
 C         1.575433         0.157434        -0.058308
 C         0.196965         0.197474        -0.656069
 C         2.378094         1.548472         0.083084
 O         3.573871         1.252815         0.717462
 C         3.550513        -0.073984         1.102115
 C         2.095145        -0.602632         1.165754
 H         3.024530        -3.313473         0.051684
 H         4.604052        -2.588559        -0.758919
 H         4.265507        -2.695422         1.034063
 H        -0.076247         1.148485        -1.187694
 H         0.033964        -0.757149        -1.315167
 H        -0.596698         0.081706         0.104329
 H         2.504073         1.930317        -0.962060
 H         1.716886         2.240789         0.710600
 H         4.401053        -0.219697         1.819094
 H         1.570268        -0.801461         2.106235
