19
Iteration:  4824
 C         3.558609        -2.561261        -0.276365
 C         3.137121        -1.145699         0.078669
 O         2.567354        -0.395518        -0.941769
 C         1.587056         0.236199         0.024077
 C         0.203943        -0.055319        -0.608407
 C         2.278671         1.601433         0.156106
 O         3.488307         1.251597         0.744622
 C         3.547765        -0.121678         1.178718
 C         2.118022        -0.710677         1.214382
 H         2.704445        -3.258020        -0.183759
 H         4.090660        -2.482895        -1.288441
 H         4.305992        -2.938459         0.486437
 H         0.346934        -0.639206        -1.586576
 H        -0.409935        -0.725131         0.097873
 H        -0.325744         0.976289        -0.650680
 H         2.595472         2.061504        -0.801528
 H         1.775711         2.316463         0.826447
 H         4.178074        -0.212491         2.039849
 H         1.726502        -1.105490         2.133611
