19
Iteration:   203charge 0 multiplicity 1
 C         3.794905        -2.498740        -0.139082
 C         3.185556        -1.178884         0.134633
 O         2.051917        -0.801590        -0.711902
 C         1.528797         0.139787         0.196784
 C        -0.029974         0.024515         0.056489
 C         2.156688         1.444817        -0.218380
 O         3.629767         1.349751         0.138104
 C         3.738723         0.052040         0.779246
 C         2.495217        -0.401891         1.366674
 H         4.573035        -2.637300         0.573243
 H         3.084750        -3.322775        -0.058437
 H         4.255567        -2.626696        -1.179464
 H        -0.160650        -0.264462        -1.032951
 H        -0.401433        -0.720171         0.781902
 H        -0.442047         1.013024         0.340141
 H         2.134251         1.554226        -1.327502
 H         1.672861         2.286986         0.285438
 H         4.644418         0.056888         1.405786
 H         2.335763        -0.494765         2.387939
