19
Iteration:  1685charge 0 multiplicity 1
 C         3.629342        -2.620366        -0.006844
 C         3.228103        -1.191249         0.079286
 O         2.319087        -0.622621        -0.899008
 C         1.547907         0.169549         0.126061
 C         0.039735        -0.042475        -0.103787
 C         2.115875         1.627825         0.090417
 O         3.558946         1.352865         0.239721
 C         3.727932         0.043296         0.861246
 C         2.420681        -0.594694         1.155808
 H         4.711159        -2.652219        -0.325767
 H         3.547874        -3.112714         0.938635
 H         2.954441        -3.146693        -0.724438
 H        -0.013269        -0.697636        -0.999079
 H        -0.539604        -0.471481         0.775072
 H        -0.426026         0.951407        -0.405595
 H         1.890900         2.308212        -0.715962
 H         1.731688         1.998928         1.048402
 H         4.581665        -0.022996         1.485292
 H         2.051566        -0.938954         2.148809
