19
Iteration:  1677
 C         3.653870        -2.636636         0.007833
 C         3.167959        -1.199554         0.040374
 O         2.330832        -0.573758        -0.924347
 C         1.548115         0.184962         0.100293
 C         0.095059        -0.056104        -0.102038
 C         2.121266         1.576280         0.174535
 O         3.580907         1.332901         0.195425
 C         3.746738         0.025851         0.868618
 C         2.324197        -0.532432         1.193152
 H         4.702652        -2.562550        -0.194312
 H         3.367065        -3.134599         0.934782
 H         3.139396        -3.098376        -0.875015
 H        -0.088369        -0.767917        -0.906497
 H        -0.168520        -0.557540         0.860105
 H        -0.560516         0.794074        -0.239470
 H         2.000351         2.062352        -0.813251
 H         1.450763         2.177225         0.938571
 H         4.660791         0.096891         1.526199
 H         2.075814        -0.900683         2.139399
