19
Iteration:  3562
 C         3.597557        -2.645496        -0.012451
 C         3.104966        -1.198270         0.221077
 O         2.530265        -0.649362        -0.990126
 C         1.626167         0.175093        -0.074594
 C         0.190392         0.211238        -0.487549
 C         2.225449         1.565613         0.033387
 O         3.522072         1.346537         0.639508
 C         3.560689        -0.056423         1.064711
 C         2.156750        -0.621813         1.172496
 H         2.943682        -3.270149        -0.682972
 H         4.653954        -2.666546        -0.238908
 H         3.687347        -3.381262         0.834205
 H         0.110460         0.014655        -1.567432
 H        -0.433324        -0.497391         0.029811
 H        -0.274356         1.168970        -0.400231
 H         2.348590         1.994773        -0.933188
 H         1.593873         2.230883         0.741173
 H         4.364823        -0.315084         1.795276
 H         1.679046        -0.991556         2.145407
