19
Iteration:  3649charge 0 multiplicity 1
 C         3.815885        -2.536259         0.021116
 C         3.166805        -1.170315         0.230300
 O         2.460472        -0.753315        -0.932115
 C         1.514495         0.188427        -0.134666
 C         0.098580         0.364187        -0.499240
 C         2.338489         1.498316         0.065383
 O         3.603087         1.258699         0.549990
 C         3.453666        -0.057541         1.114753
 C         2.056079        -0.696000         1.117832
 H         2.936996        -3.230645         0.288804
 H         4.326899        -2.639137        -0.895563
 H         4.514654        -2.714050         0.897487
 H         0.025060         1.099284        -1.339989
 H        -0.314862        -0.556596        -0.790000
 H        -0.443360         0.711332         0.357054
 H         2.318532         2.042740        -0.836716
 H         1.869064         2.228147         0.758985
 H         4.117204        -0.483683         1.890971
 H         1.359913        -1.042726         1.911296
