19
Iteration:  2521
 C         3.991985        -2.429161        -0.182523
 C         3.142654        -1.193974         0.105796
 O         2.383799        -0.650603        -0.982723
 C         1.504666         0.052943         0.023314
 C         0.125788         0.420983        -0.549467
 C         2.286196         1.537556         0.166370
 O         3.452884         1.244334         0.800497
 C         3.503719        -0.124658         1.056524
 C         2.097925        -0.826943         1.173130
 H         3.428354        -3.223011        -0.863000
 H         4.689098        -2.032503        -0.931383
 H         4.597784        -2.725770         0.698008
 H        -0.742173        -0.051700         0.022195
 H        -0.046311         1.570000        -0.543057
 H         0.004145         0.021563        -1.554743
 H         2.348367         2.028692        -0.775390
 H         1.557964         2.161566         0.723880
 H         4.248427        -0.557922         1.764225
 H         1.736045        -1.342696         1.986240
