19
Iteration:  2989
 C         3.503202        -2.636950         0.027926
 C         3.168421        -1.129591         0.200233
 O         2.553363        -0.594639        -0.973126
 C         1.635732         0.190031        -0.076321
 C         0.141071         0.097867        -0.553555
 C         2.203293         1.585707         0.077385
 O         3.570859         1.303528         0.605303
 C         3.610206        -0.030854         1.084905
 C         2.182172        -0.645036         1.180614
 H         2.648499        -3.050054        -0.536364
 H         4.365143        -3.057998        -0.517802
 H         3.567665        -3.131208         1.025179
 H         0.212224        -0.017863        -1.664486
 H        -0.404967        -0.789076        -0.186599
 H        -0.368524         1.018585        -0.268639
 H         2.349806         2.162048        -0.923619
 H         1.582301         2.173744         0.818132
 H         4.149744        -0.104596         2.000567
 H         1.644121        -1.116917         1.962579
