19
Iteration:  3137
 C         3.678233        -2.524967         0.166978
 C         3.117721        -1.189949         0.106742
 O         2.563840        -0.548640        -1.036054
 C         1.592363         0.240029        -0.107090
 C         0.125171         0.142701        -0.470965
 C         2.263750         1.539246         0.019296
 O         3.599883         1.224905         0.647089
 C         3.444267        -0.141545         1.100575
 C         2.088967        -0.617297         1.111375
 H         2.914951        -3.350755        -0.088051
 H         4.522054        -2.596074        -0.616031
 H         4.162970        -2.798370         1.115450
 H        -0.133531         0.949489        -1.105724
 H        -0.109183        -0.882361        -0.898513
 H        -0.481488         0.290073         0.387590
 H         2.546875         2.023148        -0.884383
 H         1.680760         2.306818         0.590130
 H         4.148181        -0.319820         1.908399
 H         1.459680        -1.220725         1.805793
