19
Iteration:  3784charge 0 multiplicity 1
 C         3.702707        -2.470236         0.180293
 C         3.103974        -1.143095         0.157731
 O         2.332350        -0.712280        -0.932136
 C         1.593933         0.129629        -0.092134
 C         0.158768         0.279491        -0.531831
 C         2.323767         1.430308        -0.020291
 O         3.576140         1.261263         0.579344
 C         3.558116        -0.105379         1.001633
 C         2.148498        -0.606164         1.192080
 H         3.130681        -3.258948        -0.250632
 H         4.644031        -2.487806        -0.576127
 H         3.982029        -2.673745         1.235316
 H        -0.398901         0.511175         0.344921
 H         0.061850         1.298480        -1.018897
 H        -0.243319        -0.498176        -1.213906
 H         2.541064         2.045429        -0.932226
 H         1.793098         2.223489         0.640472
 H         4.273500        -0.507144         1.769303
 H         1.650600        -1.021407         2.112094
