19
Iteration:  4028charge 0 multiplicity 1
 C         3.672308        -2.592548         0.024479
 C         3.076851        -1.211436         0.246845
 O         2.434821        -0.643160        -0.922575
 C         1.601533         0.210339        -0.082553
 C         0.204062         0.243992        -0.565253
 C         2.326937         1.507095        -0.012183
 O         3.601969         1.220167         0.535017
 C         3.491811        -0.019764         1.122476
 C         2.081051        -0.591368         1.213419
 H         3.066509        -3.389898         0.418054
 H         4.196450        -2.618496        -0.925324
 H         4.539423        -2.738646         0.723453
 H        -0.423424        -0.424113         0.127963
 H        -0.217184         1.201023        -0.709001
 H         0.178070        -0.319314        -1.472305
 H         2.382380         1.861023        -1.078670
 H         1.732076         2.237975         0.510866
 H         3.896379        -0.380441         2.085934
 H         1.658562        -0.621009         2.269249
