19
Iteration:  2276charge 0 multiplicity 1
 C         3.902819        -2.449568        -0.407535
 C         3.146899        -1.146633         0.108674
 O         2.398896        -0.532994        -0.950318
 C         1.551972         0.174954         0.020814
 C         0.114246         0.257895        -0.614521
 C         2.224957         1.505678         0.225114
 O         3.492509         1.220851         0.844379
 C         3.543640        -0.122823         1.148137
 C         2.121042        -0.819970         1.224126
 H         3.570973        -2.689927        -1.399599
 H         5.023681        -2.375510        -0.266047
 H         3.663550        -3.335505         0.231259
 H         0.265914         0.058460        -1.682339
 H        -0.622466        -0.452725        -0.221355
 H        -0.246719         1.317670        -0.490392
 H         2.358594         1.977937        -0.783638
 H         1.743716         2.052132         1.035849
 H         4.214754        -0.503573         1.941030
 H         1.545390        -1.251422         2.003903
