19
Iteration:  4406charge 0 multiplicity 1
 C         3.631385        -2.540709        -0.004129
 C         3.025820        -1.216625         0.346375
 O         2.462036        -0.581377        -0.885795
 C         1.615308         0.244723        -0.014943
 C         0.137265         0.076235        -0.566534
 C         2.319945         1.586368        -0.094755
 O         3.696166         1.237552         0.553901
 C         3.571563        -0.067462         1.120061
 C         1.988328        -0.601207         1.203593
 H         2.998710        -3.335658        -0.330473
 H         4.389832        -2.159775        -0.800100
 H         4.243034        -2.944388         0.807968
 H        -0.715381         0.376672         0.102708
 H         0.275127         0.598923        -1.587829
 H        -0.080761        -0.988896        -0.710418
 H         2.389364         1.724672        -1.190592
 H         1.805905         2.322290         0.489761
 H         4.416369        -0.300633         1.818057
 H         1.325259        -0.967395         1.961864
