19
Iteration:  1738charge 0 multiplicity 1
 C         3.894333        -2.512939        -0.154687
 C         3.121810        -1.207323         0.126668
 O         2.278452        -0.747588        -0.970151
 C         1.498986         0.181651         0.123751
 C         0.032797         0.095020        -0.064973
 C         2.278695         1.562546        -0.053463
 O         3.568928         1.333093         0.381246
 C         3.562542        -0.014697         0.956545
 C         2.247066        -0.568839         1.266206
 H         3.874974        -2.776586        -1.252329
 H         4.962183        -2.445081        -0.018243
 H         3.595340        -3.433763         0.343679
 H        -0.334722        -0.934559        -0.224236
 H        -0.223837         0.338422         0.985677
 H        -0.389648         0.887588        -0.724883
 H         2.385134         1.730006        -1.133143
 H         1.686563         2.362015         0.422552
 H         4.469171        -0.017059         1.481980
 H         1.825809        -0.907970         2.252598
