19
Iteration:  4044
 C         3.663583        -2.525542         0.173627
 C         3.047812        -1.211762         0.146960
 O         2.458104        -0.664006        -1.009449
 C         1.598107         0.158132        -0.087185
 C         0.172934         0.143346        -0.517165
 C         2.345603         1.574427         0.039758
 O         3.661730         1.255405         0.556068
 C         3.536665        -0.085914         1.140159
 C         2.031734        -0.534086         1.163931
 H         2.855024        -3.311098         0.328988
 H         3.908439        -2.746874        -0.904147
 H         4.534845        -2.681490         0.855859
 H        -0.528128        -0.039511         0.243037
 H        -0.169792         1.214318        -0.804680
 H         0.081161        -0.505041        -1.439170
 H         2.270289         2.174755        -0.891250
 H         1.665917         2.188690         0.761090
 H         4.421242        -0.256416         1.770100
 H         1.344563        -1.127496         1.730412
