19
Iteration:  3985charge 0 multiplicity 1
 C         3.717367        -2.459220         0.039170
 C         3.061315        -1.213036         0.252698
 O         2.355234        -0.756224        -0.931820
 C         1.592770         0.164855        -0.063036
 C         0.191574         0.257230        -0.526607
 C         2.348337         1.437819        -0.113417
 O         3.657552         1.233215         0.554267
 C         3.462509        -0.031790         1.167954
 C         2.063319        -0.559224         1.201196
 H         2.883577        -3.225601        -0.212162
 H         4.549427        -2.250613        -0.662117
 H         4.216133        -2.931894         0.944348
 H        -0.177749        -0.829450        -0.663875
 H        -0.320904         0.908573         0.140494
 H         0.101828         0.674818        -1.515402
 H         2.640547         1.850255        -1.105738
 H         1.921608         2.206078         0.508883
 H         4.224660         0.006538         2.003802
 H         1.558049        -0.612676         2.225326
