19
Iteration:  1873charge 0 multiplicity 1
 C         3.640640        -2.577410        -0.095873
 C         3.107888        -1.219347         0.070963
 O         2.480565        -0.504424        -0.982756
 C         1.534525         0.192439         0.019689
 C         0.043096        -0.102865        -0.121976
 C         2.241724         1.596437         0.099085
 O         3.594925         1.305520         0.450055
 C         3.648386        -0.036407         0.962069
 C         2.229969        -0.518110         1.116659
 H         4.369672        -2.760531         0.678101
 H         2.799722        -3.291546         0.031662
 H         4.127586        -2.567920        -1.103025
 H        -0.012118        -1.189027         0.151804
 H        -0.729336         0.494555         0.468672
 H        -0.319660        -0.082443        -1.168440
 H         2.155785         2.216361        -0.806172
 H         1.883373         2.181709         1.029471
 H         4.362705        -0.115583         1.772543
 H         1.856406        -1.113397         1.967561
