19
Iteration:  2940
 C         3.664704        -2.543227        -0.051109
 C         3.086355        -1.159250         0.253250
 O         2.422456        -0.660077        -0.898808
 C         1.563738         0.289066        -0.110887
 C         0.202168         0.094203        -0.543267
 C         2.315263         1.535044         0.090854
 O         3.625782         1.264792         0.553134
 C         3.497061        -0.092042         1.137183
 C         2.096039        -0.592120         1.176343
 H         2.981491        -3.326104        -0.306602
 H         4.292312        -2.417367        -0.921879
 H         4.383779        -2.803556         0.720289
 H         0.276558        -0.546494        -1.446803
 H        -0.423482        -0.490001         0.167409
 H        -0.284179         1.091853        -0.730293
 H         2.481620         1.993159        -0.864880
 H         1.793697         2.237982         0.775822
 H         4.307253        -0.361155         1.868055
 H         1.366739        -0.835647         1.963022
