19
Iteration:  2025charge 0 multiplicity 1
 C         3.530475        -2.551915        -0.203726
 C         3.083429        -1.155981         0.089973
 O         2.480950        -0.490681        -1.016202
 C         1.656469         0.158651         0.051622
 C         0.173366        -0.070767        -0.301563
 C         2.216291         1.537647         0.075132
 O         3.543233         1.331230         0.591872
 C         3.593626        -0.010596         1.118839
 C         2.252796        -0.627308         1.149458
 H         2.747933        -3.191001        -0.649773
 H         4.557559        -2.484432        -0.642030
 H         3.898392        -2.929193         0.818082
 H        -0.092593        -1.119693        -0.556857
 H        -0.331686         0.076755         0.671905
 H        -0.172630         0.574673        -1.093255
 H         2.259234         1.953118        -0.929836
 H         1.724559         2.224045         0.747973
 H         4.347098        -0.222933         1.812558
 H         1.653078        -1.079948         1.967801
