19
Iteration:  1453charge 0 multiplicity 1
 C         3.754970        -2.588644         0.103486
 C         3.136425        -1.149104         0.136745
 O         2.186482        -0.783067        -0.880240
 C         1.555431         0.122148         0.140353
 C         0.007086         0.015316         0.180498
 C         2.190455         1.546134        -0.179619
 O         3.566060         1.366570         0.050957
 C         3.743604         0.109129         0.777692
 C         2.440173        -0.465883         1.219165
 H         4.685628        -2.858771        -0.377283
 H         3.753622        -2.831540         1.167475
 H         2.947832        -3.140947        -0.317818
 H        -0.318660        -0.684674         1.001908
 H        -0.615351         0.921959         0.417002
 H        -0.399312        -0.412390        -0.763865
 H         2.034750         1.812458        -1.254603
 H         1.745091         2.200558         0.611915
 H         4.739286         0.052879         1.170854
 H         2.496589        -0.864398         2.169370
