19
Iteration:   450
 C         3.995535        -2.335472        -0.204132
 C         3.155248        -1.150723         0.220793
 O         2.058056        -0.975552        -0.697982
 C         1.456862         0.054633         0.122468
 C        -0.116822         0.290343         0.227457
 C         2.269159         1.347398        -0.381786
 O         3.685590         1.277486         0.110355
 C         3.678479         0.060021         0.821638
 C         2.329731        -0.459737         1.396819
 H         4.588351        -2.853971         0.521985
 H         3.442263        -3.212195        -0.588088
 H         4.613430        -1.852095        -0.857007
 H        -0.444689         0.742146        -0.727687
 H        -0.604734        -0.674383         0.338679
 H        -0.295901         1.053303         0.984966
 H         2.101700         1.417268        -1.466151
 H         1.836973         2.205020         0.063813
 H         4.689675        -0.027058         1.435962
 H         1.998010        -0.723631         2.368688
