19
Iteration:  2550charge 0 multiplicity 1
 C         3.832491        -2.445129        -0.274791
 C         3.079425        -1.157640         0.051564
 O         2.385698        -0.598200        -1.001892
 C         1.551623         0.167079        -0.017268
 C         0.140357         0.139718        -0.608347
 C         2.294394         1.568480         0.215285
 O         3.613531         1.249900         0.807091
 C         3.470930        -0.116467         1.213238
 C         2.106450        -0.678137         1.196150
 H         3.337536        -3.336343        -0.413324
 H         4.343309        -2.180949        -1.212317
 H         4.598464        -2.611005         0.484161
 H        -0.276852        -0.715732        -0.072251
 H        -0.573921         0.902353        -0.398603
 H         0.300954        -0.090705        -1.700356
 H         2.331027         2.304437        -0.676858
 H         1.602349         1.986703         0.951798
 H         4.149000        -0.714779         1.918449
 H         1.541988        -1.106391         2.052190
