19
Iteration:  1675charge 0 multiplicity 1
 C         3.658039        -2.633340         0.008464
 C         3.136461        -1.183921         0.049996
 O         2.333170        -0.560355        -0.943856
 C         1.561111         0.186705         0.082579
 C         0.112447        -0.062912        -0.095228
 C         2.120053         1.555350         0.192101
 O         3.580648         1.325725         0.189588
 C         3.747315         0.024676         0.864743
 C         2.308966        -0.512638         1.208123
 H         4.763167        -2.631864        -0.151613
 H         3.352516        -3.129700         0.888186
 H         3.218201        -3.112196        -0.917353
 H        -0.109753        -0.812592        -0.880589
 H        -0.123196        -0.603542         0.882919
 H        -0.614987         0.798205        -0.184257
 H         2.036999         1.965416        -0.807335
 H         1.529248         2.236064         0.894922
 H         4.597506         0.078387         1.515495
 H         2.049395        -0.915798         2.198684
