19
Iteration:  2536
 C         3.929523        -2.356166        -0.257256
 C         3.091773        -1.216917         0.103876
 O         2.299936        -0.649598        -0.982650
 C         1.565964         0.180274        -0.017813
 C         0.148666         0.266478        -0.603159
 C         2.190354         1.467231         0.211436
 O         3.556328         1.217088         0.849852
 C         3.550740        -0.155594         1.131891
 C         2.148239        -0.687423         1.155374
 H         3.232425        -3.237492        -0.433074
 H         4.632057        -2.175442        -1.122790
 H         4.565433        -2.664942         0.613641
 H        -0.616094        -0.352414        -0.192276
 H        -0.113358         1.297260        -0.637795
 H         0.190038        -0.036116        -1.664198
 H         2.366310         1.942925        -0.793172
 H         1.715559         2.169394         0.947269
 H         4.333301        -0.257657         1.833653
 H         1.534993        -1.149293         2.010929
