19
Iteration:  1386
 C         3.895196        -2.476128        -0.028131
 C         3.199111        -1.187462         0.201275
 O         2.160654        -0.908356        -0.723997
 C         1.522399         0.076266         0.156377
 C        -0.065554         0.206544         0.153926
 C         2.158002         1.399348        -0.254756
 O         3.599838         1.281435        -0.037572
 C         3.673008         0.140514         0.800495
 C         2.435750        -0.366311         1.351492
 H         4.949751        -2.529715         0.048998
 H         3.491439        -3.281800         0.673714
 H         3.648862        -2.604509        -1.076369
 H        -0.285940        -0.462307        -0.733531
 H        -0.532107        -0.179490         1.123900
 H        -0.385961         1.211210        -0.173779
 H         2.060437         1.500745        -1.381201
 H         1.727182         2.206407         0.422197
 H         4.477016        -0.130387         1.492341
 H         1.914535        -0.621884         2.325752
