19
Iteration:  4688
 C         3.639921        -2.470327        -0.223232
 C         3.143958        -1.184387         0.178379
 O         2.454242        -0.592112        -0.883227
 C         1.619042         0.146857        -0.026935
 C         0.253270         0.098336        -0.559257
 C         2.265986         1.531518         0.076455
 O         3.522691         1.261332         0.691899
 C         3.545530        -0.135747         1.153801
 C         2.093153        -0.571685         1.182830
 H         2.822963        -3.212446        -0.646596
 H         4.453594        -2.266948        -0.952366
 H         4.056940        -3.020333         0.623197
 H        -0.441326         0.674686         0.112099
 H         0.225602         0.767671        -1.493634
 H        -0.199748        -0.903016        -0.585218
 H         2.306220         1.877580        -0.981821
 H         1.802121         2.206600         0.779363
 H         4.194426        -0.241457         1.983102
 H         1.471828        -0.968068         1.965659
