19
Iteration:  4782charge 0 multiplicity 1
 C         3.807859        -2.516645        -0.173415
 C         3.170994        -1.202537         0.128009
 O         2.458070        -0.615876        -0.992034
 C         1.570006         0.202493        -0.133928
 C         0.063575         0.194589        -0.522691
 C         2.299066         1.611470         0.173463
 O         3.526760         1.237053         0.752993
 C         3.469979        -0.153688         1.180748
 C         2.166690        -0.642808         1.142224
 H         3.070511        -3.206979        -0.657676
 H         4.567155        -2.332870        -0.951440
 H         4.176571        -3.085938         0.671821
 H        -0.198231         0.483000        -1.538525
 H        -0.370804        -0.864010        -0.551017
 H        -0.319090         0.880882         0.205788
 H         2.455702         2.168232        -0.761186
 H         1.604751         2.061596         0.933321
 H         4.049734        -0.386187         2.030604
 H         1.682192        -0.974008         2.032071
