19
Iteration:  4852charge 0 multiplicity 1
 C         3.635397        -2.558047        -0.132961
 C         3.142713        -1.153230         0.077000
 O         2.609723        -0.433636        -1.058809
 C         1.614703         0.209350        -0.101812
 C         0.130402         0.024289        -0.503235
 C         2.181692         1.567292         0.302049
 O         3.596222         1.283818         0.728487
 C         3.522616        -0.150960         1.162261
 C         2.074610        -0.681001         1.027360
 H         2.855370        -3.296033        -0.213418
 H         4.111544        -2.442697        -1.088235
 H         4.324956        -2.926900         0.642727
 H        -0.037205        -0.849267        -1.106358
 H        -0.466189        -0.211721         0.334969
 H        -0.108816         0.988040        -0.869796
 H         2.337460         2.308096        -0.488037
 H         1.585756         1.850932         1.200173
 H         4.031536        -0.361905         2.154363
 H         1.506034        -1.147466         1.864322
