19
Iteration:  1631charge 0 multiplicity 1
 C         3.791613        -2.505665        -0.119207
 C         3.174613        -1.198644         0.174384
 O         2.183992        -0.688111        -0.967826
 C         1.513653         0.171733         0.076265
 C         0.012718        -0.056759         0.030742
 C         2.274512         1.535698        -0.086370
 O         3.627810         1.317469         0.333896
 C         3.660377         0.067447         0.887146
 C         2.342439        -0.484251         1.232170
 H         4.401552        -2.812388         0.759562
 H         2.927624        -3.104141        -0.169622
 H         4.377248        -2.495964        -1.076594
 H        -0.308761        -0.404231        -0.972226
 H        -0.145716        -0.895350         0.781193
 H        -0.594517         0.846696         0.338034
 H         2.029966         1.826668        -1.103692
 H         1.930045         2.329124         0.631967
 H         4.402324        -0.169341         1.590378
 H         1.802801        -0.944363         2.127973
