19
Iteration:  2883
 C         3.875344        -2.489468         0.079486
 C         3.143158        -1.198084         0.130069
 O         2.443001        -0.659519        -1.044981
 C         1.586499         0.132935        -0.114384
 C         0.135846         0.406646        -0.346611
 C         2.302702         1.459594        -0.062838
 O         3.492954         1.263386         0.613190
 C         3.420746        -0.120452         1.161886
 C         2.099445        -0.729391         1.133572
 H         3.294548        -3.435598        -0.028646
 H         4.620382        -2.417658        -0.652546
 H         4.330853        -2.842816         1.022717
 H        -0.249647        -0.008690        -1.307032
 H        -0.450523         0.189098         0.494256
 H         0.116386         1.539541        -0.506281
 H         2.468330         1.787464        -1.051357
 H         1.682406         2.199009         0.496885
 H         4.035558        -0.428972         1.981060
 H         1.460452        -1.192347         1.798745
