19
Iteration:  2624charge 0 multiplicity 1
 C         3.642885        -2.568834        -0.121126
 C         3.251719        -1.142578         0.007699
 O         2.480710        -0.583996        -1.089755
 C         1.624399         0.211860        -0.081946
 C         0.107890         0.072644        -0.511851
 C         2.209566         1.591420         0.260523
 O         3.489015         1.344149         0.865290
 C         3.577237        -0.122478         1.088963
 C         2.218679        -0.658111         1.101015
 H         2.702334        -3.097344        -0.539879
 H         4.655012        -2.879476        -0.611641
 H         3.570573        -2.993926         0.938538
 H         0.195366        -0.115491        -1.572428
 H        -0.487377        -0.693125        -0.100108
 H        -0.382289         1.115292        -0.483268
 H         2.231654         2.211987        -0.688079
 H         1.354868         1.891434         0.928054
 H         4.275473        -0.273696         1.994082
 H         1.839243        -1.329675         1.926448
