19
Iteration:  2030charge 0 multiplicity 1
 C         3.517487        -2.563262        -0.154748
 C         3.084609        -1.161236         0.083864
 O         2.479027        -0.483620        -1.033116
 C         1.641599         0.157415         0.004565
 C         0.159381        -0.070681        -0.290782
 C         2.168897         1.519845         0.092989
 O         3.556668         1.324823         0.634627
 C         3.615367         0.019327         1.124782
 C         2.301873        -0.623074         1.141937
 H         2.761110        -3.194350        -0.624617
 H         4.343350        -2.514277        -0.909383
 H         3.960884        -3.044295         0.681624
 H        -0.007119        -1.125346        -0.527988
 H        -0.457454         0.242239         0.575491
 H        -0.094002         0.527152        -1.213743
 H         2.259772         1.865427        -0.960029
 H         1.665289         2.360143         0.664858
 H         4.448905        -0.262179         1.841805
 H         1.732894        -1.046859         1.935821
