19
Iteration:   178charge 0 multiplicity 1
 C         3.483812        -2.512996         0.016172
 C         3.188851        -1.119152         0.181628
 O         2.238716        -0.794948        -0.883602
 C         1.603703         0.143582         0.176728
 C         0.059997        -0.155754         0.120410
 C         2.127130         1.511897        -0.088282
 O         3.611053         1.412681         0.074420
 C         3.797434         0.158467         0.747039
 C         2.499905        -0.468735         1.271621
 H         4.122360        -3.042012         0.754890
 H         2.475140        -3.001936        -0.025057
 H         3.874186        -2.692077        -0.923778
 H        -0.050980        -0.355188        -0.888299
 H        -0.106120        -0.981619         0.775338
 H        -0.490662         0.683645         0.456255
 H         2.065431         1.831928        -1.114982
 H         1.609079         2.212104         0.559742
 H         4.772643         0.202698         1.101311
 H         2.057174        -0.826969         2.250459
