19
Iteration:  3487charge 0 multiplicity 1
 C         3.749700        -2.575706         0.022822
 C         2.991519        -1.245547         0.189284
 O         2.429720        -0.586671        -0.985753
 C         1.634323         0.264199        -0.134326
 C         0.277285         0.111390        -0.481241
 C         2.320879         1.585832        -0.007468
 O         3.599406         1.225769         0.609551
 C         3.394658        -0.129882         1.152403
 C         2.043206        -0.535668         1.214404
 H         3.126168        -3.408149        -0.002937
 H         4.303782        -2.502542        -0.913105
 H         4.558235        -2.855968         0.726456
 H        -0.065749         1.019085        -1.077968
 H         0.121633        -0.800115        -1.054442
 H        -0.318936         0.112010         0.445662
 H         2.512743         1.903283        -0.992665
 H         1.890072         2.414846         0.536636
 H         4.159597        -0.354768         1.928249
 H         1.355550        -0.850880         2.071006
