19
Iteration:  3949charge 0 multiplicity 1
 C         3.689008        -2.623836         0.301016
 C         3.041089        -1.262480         0.212495
 O         2.510484        -0.617980        -1.039725
 C         1.536844         0.263743        -0.116611
 C         0.016460         0.202537        -0.420345
 C         2.379191         1.513083        -0.060499
 O         3.704487         1.292291         0.550073
 C         3.520804        -0.070010         0.991606
 C         2.077760        -0.604851         1.097026
 H         3.327873        -3.425321        -0.305982
 H         4.805364        -2.475212        -0.064245
 H         3.750804        -2.811695         1.328942
 H        -0.304173        -0.654573        -0.934187
 H        -0.499660         0.126712         0.563355
 H        -0.255725         1.142186        -0.890457
 H         2.311622         1.899646        -1.081709
 H         1.814971         2.185218         0.564045
 H         4.100155        -0.477270         1.786095
 H         1.434226        -0.719387         1.920234
