19
Iteration:  1962charge 0 multiplicity 1
 C         3.943650        -2.376649        -0.077890
 C         3.165943        -1.230160         0.154142
 O         2.251233        -0.731969        -0.990282
 C         1.497397         0.121556         0.083087
 C         0.123760         0.330851        -0.289536
 C         2.180041         1.499662         0.113371
 O         3.558220         1.202828         0.479719
 C         3.578094        -0.070215         0.979182
 C         2.193988        -0.678661         1.117634
 H         4.454639        -2.273786        -0.996430
 H         4.820288        -2.555021         0.628603
 H         3.392827        -3.284655         0.100036
 H        -0.140151        -0.340954        -1.163925
 H        -0.444992         0.040748         0.631446
 H        -0.142418         1.404917        -0.468940
 H         2.070230         2.000039        -0.854629
 H         1.673769         2.274408         0.861909
 H         4.484345        -0.314056         1.544630
 H         1.728642        -1.055311         2.038034
