19
Iteration:  3536
 C         3.574890        -2.635815         0.089350
 C         3.172400        -1.152926         0.135728
 O         2.511058        -0.551850        -1.000207
 C         1.615759         0.184941        -0.072475
 C         0.164725         0.200050        -0.545000
 C         2.222859         1.513054         0.142216
 O         3.561791         1.261802         0.507120
 C         3.549093        -0.031219         1.112208
 C         2.179495        -0.657882         1.159350
 H         2.766423        -3.328594        -0.332927
 H         4.587169        -2.925296        -0.180017
 H         3.638255        -3.048099         1.091684
 H         0.129374         0.324559        -1.615151
 H        -0.270677        -0.794751        -0.259438
 H        -0.475872         0.991300        -0.102363
 H         2.176070         2.248780        -0.731302
 H         1.729124         1.976990         1.025132
 H         4.269119        -0.199681         1.879171
 H         1.593960        -1.044704         1.966968
