19
Iteration:  4190charge 0 multiplicity 1
 C         3.836844        -2.577383         0.127747
 C         3.161347        -1.232520         0.146401
 O         2.386558        -0.675487        -0.998330
 C         1.626119         0.145902        -0.115074
 C         0.057075         0.401170        -0.400566
 C         2.289267         1.560108         0.000673
 O         3.594519         1.198662         0.542155
 C         3.499769        -0.082561         1.128856
 C         2.070775        -0.664338         1.065997
 H         3.227067        -3.392519        -0.178189
 H         4.945559        -2.456422        -0.156905
 H         3.972551        -2.817449         1.214541
 H        -0.489032         1.434770        -0.295683
 H         0.002161         0.180524        -1.461365
 H        -0.560457        -0.417836         0.008192
 H         2.379941         2.172464        -0.913578
 H         1.803037         2.243839         0.683112
 H         3.978596        -0.308593         2.066555
 H         1.601722        -1.024659         1.991612
