19
Iteration:   872
 C         3.810523        -2.520670         0.036454
 C         3.102796        -1.166897         0.148836
 O         2.090627        -0.861648        -0.741863
 C         1.543814         0.135409         0.196475
 C        -0.054259         0.048920         0.191627
 C         2.192853         1.456965        -0.227971
 O         3.571124         1.306211         0.018494
 C         3.815362         0.113288         0.697505
 C         2.466322        -0.367996         1.249994
 H         3.996404        -3.159963         0.933872
 H         3.129202        -3.125783        -0.495053
 H         4.770285        -2.392417        -0.489661
 H        -0.410965         0.710025        -0.602340
 H        -0.363424        -0.980995         0.170212
 H        -0.403188         0.511048         1.182402
 H         2.082237         1.704684        -1.297002
 H         1.892946         2.255522         0.380285
 H         4.783938         0.122020         1.029670
 H         2.446150        -0.553405         2.349002
