19
Iteration:  1927charge 0 multiplicity 1
 C         3.903723        -2.470038        -0.155839
 C         3.129355        -1.209527         0.150582
 O         2.286289        -0.713495        -0.929850
 C         1.499066         0.089576         0.015657
 C        -0.002700         0.209925        -0.261824
 C         2.227066         1.506455        -0.058970
 O         3.608475         1.352287         0.601455
 C         3.627454        -0.014692         1.016685
 C         2.198448        -0.691143         1.198518
 H         4.896365        -2.395249        -0.569734
 H         3.808189        -3.223679         0.645138
 H         3.304154        -2.812326        -1.058606
 H        -0.465338        -0.499855        -0.978772
 H        -0.338076        -0.077547         0.779130
 H        -0.191149         1.257057        -0.520711
 H         2.387602         1.747007        -1.122351
 H         1.908061         2.410027         0.573949
 H         4.543218        -0.173168         1.514389
 H         1.887066        -0.906420         2.254149
