19
Iteration:  3806charge 0 multiplicity 1
 C         3.835867        -2.595875         0.205873
 C         3.049817        -1.267901         0.193896
 O         2.376875        -0.791949        -1.098577
 C         1.608096         0.237130        -0.065581
 C         0.081791         0.368891        -0.447866
 C         2.313528         1.537305        -0.000663
 O         3.595069         1.288136         0.541876
 C         3.527487        -0.071665         1.116535
 C         2.097954        -0.607766         1.145860
 H         3.331597        -3.541561         0.130813
 H         4.556559        -2.704558        -0.763709
 H         4.402449        -2.503038         1.148029
 H        -0.609251         0.147485         0.325112
 H        -0.151724         1.456204        -0.676626
 H         0.019434        -0.242959        -1.378215
 H         2.374435         1.916567        -1.066251
 H         1.690281         2.334404         0.600710
 H         4.232629        -0.427134         1.909494
 H         1.477348        -0.985629         2.012695
