19
Iteration:  2625
 C         3.652211        -2.572327        -0.123217
 C         3.239916        -1.138097         0.010013
 O         2.471372        -0.585679        -1.095964
 C         1.628808         0.197936        -0.077247
 C         0.109572         0.078906        -0.523271
 C         2.216693         1.595254         0.261498
 O         3.484852         1.346486         0.865701
 C         3.576396        -0.119247         1.087880
 C         2.222323        -0.661983         1.114056
 H         2.740208        -3.096240        -0.536353
 H         4.666804        -2.904652        -0.587762
 H         3.562550        -3.001204         0.932619
 H         0.177019        -0.079266        -1.590983
 H        -0.472149        -0.689170        -0.103774
 H        -0.405740         1.106540        -0.456873
 H         2.229830         2.227952        -0.713221
 H         1.373761         1.893086         0.962058
 H         4.282240        -0.293403         1.984620
 H         1.853241        -1.296542         1.916715
