19
Iteration:   994
 C         3.852439        -2.502415        -0.040868
 C         3.238428        -1.161896         0.268362
 O         2.137898        -0.970203        -0.767789
 C         1.504193         0.080986         0.152215
 C        -0.041729         0.202314         0.147301
 C         2.171918         1.396925        -0.241787
 O         3.573301         1.357005        -0.022917
 C         3.722656         0.118603         0.809513
 C         2.431680        -0.405775         1.337037
 H         4.857568        -2.767483         0.154410
 H         3.124690        -3.333548         0.259408
 H         3.760071        -2.405520        -1.132137
 H        -0.335180         0.886060        -0.678375
 H        -0.415301        -0.811120         0.150059
 H        -0.340266         0.720202         1.075715
 H         2.020017         1.575481        -1.343558
 H         1.782230         2.259864         0.293037
 H         4.620999         0.264258         1.542543
 H         2.037905        -0.734774         2.254560
