19
Iteration:   665
 C         3.885768        -2.427250        -0.010369
 C         3.106811        -1.209683         0.148858
 O         1.996556        -0.925589        -0.752502
 C         1.535488         0.025729         0.190872
 C         0.052474         0.228435         0.211629
 C         2.136198         1.401849        -0.240284
 O         3.566257         1.418994         0.081514
 C         3.731711         0.057427         0.673523
 C         2.511514        -0.490976         1.252381
 H         4.188191        -2.700460         1.071923
 H         3.432783        -3.280632        -0.458418
 H         4.840103        -2.199653        -0.536380
 H        -0.100251         1.144289        -0.330348
 H        -0.310327        -0.747143        -0.090142
 H        -0.510965         0.476205         1.137695
 H         2.030719         1.532023        -1.367683
 H         1.723417         2.297329         0.234242
 H         4.736736        -0.069631         1.179368
 H         2.479948        -0.784549         2.279807
