19
Iteration:  2050
 C         3.534009        -2.660189        -0.188957
 C         3.273397        -1.108152         0.073842
 O         2.445447        -0.553586        -1.007724
 C         1.616073         0.177571         0.001180
 C         0.082533        -0.043564        -0.377461
 C         2.226744         1.584073         0.102992
 O         3.502320         1.390844         0.743465
 C         3.639616        -0.036966         1.007699
 C         2.267824        -0.617771         1.161841
 H         2.654503        -3.105025         0.204824
 H         3.799633        -2.963249        -1.207525
 H         4.365027        -2.951220         0.409856
 H        -0.265127        -1.033686        -0.020109
 H        -0.522463         0.660786         0.219435
 H        -0.075224         0.022542        -1.487040
 H         2.333081         2.192199        -0.797606
 H         1.625269         2.176307         0.839533
 H         4.440552        -0.226873         1.801343
 H         1.854940        -1.100146         2.009508
