19
Iteration:  3877
 C         3.611532        -2.654440         0.070191
 C         3.143540        -1.232810         0.233077
 O         2.377022        -0.639956        -0.829894
 C         1.574105         0.256035        -0.081494
 C         0.151385         0.107775        -0.602169
 C         2.351902         1.581853        -0.067868
 O         3.624755         1.287634         0.504707
 C         3.588596        -0.104845         1.115305
 C         2.118043        -0.433837         1.278210
 H         2.694242        -3.297411        -0.104739
 H         3.999721        -2.748923        -0.851862
 H         4.280245        -3.086027         0.855401
 H         0.134979        -1.046611        -0.754047
 H        -0.592955         0.256872         0.184803
 H         0.040159         0.674900        -1.526857
 H         2.401954         1.935159        -1.136077
 H         1.644452         2.279793         0.448584
 H         4.504492        -0.276956         1.747691
 H         1.450212        -0.687770         2.120846
