19
Iteration:   179
 C         3.490733        -2.506773         0.013603
 C         3.185663        -1.111923         0.183590
 O         2.231662        -0.805623        -0.879414
 C         1.598599         0.141566         0.178358
 C         0.054069        -0.148651         0.114837
 C         2.133758         1.509830        -0.093023
 O         3.605634         1.404352         0.079659
 C         3.803854         0.162577         0.749090
 C         2.504236        -0.464276         1.281498
 H         4.123523        -3.026042         0.733098
 H         2.484734        -2.995435        -0.046392
 H         3.875850        -2.668283        -0.969730
 H        -0.046597        -0.385654        -0.918410
 H        -0.139263        -0.978800         0.777198
 H        -0.497884         0.698243         0.463708
 H         2.106928         1.823474        -1.129236
 H         1.629624         2.223287         0.553237
 H         4.776450         0.196677         1.084684
 H         2.092774        -0.853628         2.216659
