19
Iteration:  4845
 C         3.628954        -2.582869        -0.151272
 C         3.153332        -1.176700         0.112485
 O         2.602898        -0.392933        -1.000712
 C         1.632135         0.214709        -0.091961
 C         0.106565         0.002131        -0.513855
 C         2.146392         1.548649         0.277033
 O         3.609607         1.266664         0.729535
 C         3.525932        -0.138687         1.182413
 C         2.110406        -0.620733         1.033937
 H         2.736007        -3.200266        -0.180106
 H         4.105661        -2.447134        -1.191706
 H         4.397868        -3.091644         0.502143
 H         0.181490        -0.796843        -1.325749
 H        -0.538643        -0.295626         0.318166
 H        -0.408773         0.972430        -0.941147
 H         2.338447         2.225225        -0.563864
 H         1.574964         2.041380         1.058431
 H         4.183359        -0.563544         1.925924
 H         1.447093        -1.173334         1.673882
