19
Iteration:  4834
 C         3.596051        -2.579812        -0.256379
 C         3.169252        -1.164014         0.149112
 O         2.593202        -0.365433        -0.948751
 C         1.564700         0.225435        -0.068024
 C         0.154239        -0.006607        -0.559938
 C         2.238615         1.598278         0.208889
 O         3.530883         1.190368         0.758202
 C         3.532192        -0.092452         1.169712
 C         2.140995        -0.647509         1.164148
 H         2.726488        -3.240543        -0.258766
 H         4.016435        -2.825104        -1.300217
 H         4.343853        -2.940175         0.534608
 H         0.281220        -0.692412        -1.485319
 H        -0.376377        -0.640074         0.178411
 H        -0.566408         0.824160        -0.993782
 H         2.267689         2.086557        -0.779147
 H         1.735760         2.250449         0.907500
 H         4.389768        -0.249061         1.812527
 H         1.502371        -1.163114         1.872004
