19
Iteration:   468charge 0 multiplicity 1
 C         3.937827        -2.339573        -0.093277
 C         3.011722        -1.234545         0.233210
 O         2.024111        -0.935020        -0.794735
 C         1.520075         0.188884         0.116726
 C         0.024719         0.106886         0.262657
 C         2.239729         1.451649        -0.310225
 O         3.659290         1.251552         0.081469
 C         3.669999         0.036170         0.820669
 C         2.381350        -0.391764         1.276305
 H         4.488748        -2.723915         0.854103
 H         3.402100        -3.216516        -0.473216
 H         4.763732        -2.022980        -0.848016
 H        -0.525008         0.699186        -0.482909
 H        -0.286582        -0.965626         0.167673
 H        -0.130387         0.528233         1.279059
 H         2.489126         1.559812        -1.391084
 H         1.869293         2.466690         0.051889
 H         4.565928        -0.084526         1.380893
 H         2.039117        -0.531638         2.305971
