19
Iteration:  2581
 C         3.650345        -2.532903        -0.209443
 C         3.116668        -1.141125         0.076274
 O         2.663627        -0.367090        -0.974219
 C         1.585990         0.226686        -0.064697
 C         0.172914         0.008052        -0.436996
 C         2.172140         1.567164         0.173598
 O         3.538259         1.203169         0.696501
 C         3.463639        -0.172008         1.208262
 C         2.087227        -0.663943         1.079559
 H         2.955874        -3.401371        -0.237829
 H         4.221901        -2.416799        -1.190627
 H         4.474117        -2.846539         0.483283
 H         0.192416        -1.067398        -0.605976
 H        -0.471447         0.261925         0.361526
 H        -0.204401         0.445202        -1.402188
 H         2.483080         2.222167        -0.723064
 H         1.683086         2.147090         1.007373
 H         4.101876        -0.505085         2.091776
 H         1.402414        -1.112133         1.860368
