19
Iteration:  4572charge 0 multiplicity 1
 C         3.793530        -2.468196        -0.081923
 C         2.991918        -1.244127         0.198047
 O         2.459893        -0.634500        -0.951274
 C         1.584855         0.142399        -0.000563
 C         0.165136         0.305022        -0.538433
 C         2.296736         1.487560        -0.023768
 O         3.544396         1.182225         0.672613
 C         3.517890        -0.071488         1.146312
 C         2.097320        -0.645130         1.187743
 H         3.357387        -3.217689        -0.681463
 H         4.792808        -2.052404        -0.521965
 H         3.998194        -2.968714         0.953344
 H        -0.143039        -0.339945        -1.426725
 H        -0.524188         0.291829         0.274006
 H         0.140290         1.294876        -1.128362
 H         2.480632         1.847361        -1.046066
 H         1.817987         2.216955         0.631781
 H         4.194153        -0.124536         1.969482
 H         1.496310        -1.194960         1.910362
