19
Iteration:  2365charge 0 multiplicity 1
 C         3.782289        -2.524366        -0.166843
 C         3.116971        -1.179353         0.077327
 O         2.478286        -0.440937        -1.061646
 C         1.556171         0.253828        -0.094667
 C         0.136401         0.144575        -0.545004
 C         2.176365         1.586546         0.266942
 O         3.584133         1.214620         0.788888
 C         3.511495        -0.218362         1.161565
 C         2.138901        -0.752322         1.114958
 H         3.246769        -3.470430         0.023258
 H         4.265960        -2.357441        -1.180376
 H         4.707745        -2.516162         0.472009
 H        -0.270203         1.029919        -1.030692
 H        -0.179453        -0.727278        -1.106392
 H        -0.459623         0.001107         0.420102
 H         2.225054         2.165074        -0.706737
 H         1.761372         2.174698         1.143096
 H         4.226309        -0.406313         1.883757
 H         1.507003        -1.397623         1.794160
