19
Iteration:  2451
 C         3.750934        -2.519837        -0.156675
 C         3.087917        -1.174646         0.041418
 O         2.461727        -0.401668        -1.065359
 C         1.550913         0.305538        -0.091834
 C         0.165806        -0.047854        -0.431185
 C         2.287808         1.576863         0.214229
 O         3.558507         1.177823         0.810185
 C         3.487918        -0.145877         1.126729
 C         2.109458        -0.646040         1.097787
 H         3.266789        -3.134615        -0.835851
 H         4.717875        -2.365143        -0.688109
 H         3.975585        -3.019348         0.775943
 H        -0.500700         0.497387         0.262992
 H         0.074622         0.443322        -1.412014
 H         0.024477        -1.206221        -0.468195
 H         2.454160         2.233832        -0.695963
 H         1.839558         2.212846         0.923522
 H         4.153585        -0.423670         1.921187
 H         1.430515        -1.230123         1.814103
