19
Iteration:   324
 C         3.399013        -2.600143         0.083690
 C         3.273922        -1.075174         0.168663
 O         2.195597        -0.777961        -0.809025
 C         1.600560         0.119423         0.121638
 C         0.034126        -0.194206         0.134755
 C         2.181977         1.531615        -0.098449
 O         3.537186         1.411749        -0.020756
 C         3.878453         0.235023         0.731212
 C         2.554301        -0.447604         1.255590
 H         3.887148        -2.964233         0.962851
 H         2.423031        -2.991148         0.009180
 H         4.009877        -3.108929        -0.747734
 H        -0.645734         0.432605        -0.493721
 H        -0.062044        -1.190916        -0.309887
 H        -0.073833        -0.334698         1.211488
 H         1.997719         1.881538        -1.132273
 H         1.629420         2.099848         0.650816
 H         4.883872         0.407374         1.190107
 H         2.211084        -0.594222         2.268297
