19
Iteration:  2201charge 0 multiplicity 1
 C         3.668688        -2.540060        -0.247250
 C         3.195021        -1.089614         0.029619
 O         2.590368        -0.422169        -1.041925
 C         1.604525         0.139914        -0.105657
 C         0.134191         0.065880        -0.379211
 C         2.193621         1.532393         0.237361
 O         3.494470         1.279973         0.878341
 C         3.516059        -0.109034         1.088861
 C         2.097693        -0.753816         1.072183
 H         4.433856        -2.634695        -1.049524
 H         4.078211        -2.925152         0.780430
 H         2.754673        -3.148939        -0.602306
 H        -0.208764         0.979414        -0.843580
 H         0.130422        -0.737405        -1.107921
 H        -0.506178        -0.271611         0.469705
 H         2.298347         2.065678        -0.739543
 H         1.742435         2.249772         1.004308
 H         4.454808        -0.289389         1.672832
 H         1.602051        -1.354219         1.805355
