19
Iteration:  3155
 C         3.649397        -2.692501         0.097091
 C         3.149731        -1.198081         0.203411
 O         2.657921        -0.454488        -1.052403
 C         1.642255         0.177243        -0.241107
 C         0.093463         0.119646        -0.355307
 C         2.277441         1.537902         0.047198
 O         3.539732         1.253003         0.577690
 C         3.475611        -0.018577         1.213260
 C         2.020917        -0.671399         1.010032
 H         2.930621        -3.345248        -0.370264
 H         4.489602        -2.788638        -0.466231
 H         3.934026        -2.872738         1.127433
 H        -0.237019         0.665059        -1.284996
 H        -0.174189        -0.893418        -0.367561
 H        -0.268438         0.662309         0.593787
 H         2.374059         2.189725        -0.900208
 H         1.877115         2.323692         0.724739
 H         3.970448        -0.208826         2.127614
 H         1.296197        -0.959471         1.823465
