19
Iteration:  4648
 C         3.554962        -2.600079        -0.080502
 C         3.121370        -1.179455         0.147367
 O         2.539862        -0.473956        -0.927885
 C         1.650728         0.219063        -0.090605
 C         0.172636        -0.000903        -0.526768
 C         2.274121         1.597190         0.152175
 O         3.545961         1.275636         0.679003
 C         3.543245        -0.112670         1.137845
 C         2.132633        -0.578971         1.065068
 H         2.733205        -3.218119        -0.057846
 H         3.908979        -2.839501        -1.107285
 H         4.260608        -2.846668         0.754874
 H        -0.498869        -0.521018         0.221440
 H        -0.243304         0.915795        -0.816986
 H         0.158239        -0.711707        -1.408895
 H         2.600949         2.126455        -0.776719
 H         1.605378         2.256644         0.824335
 H         4.179489        -0.342467         2.008867
 H         1.584142        -1.168965         1.806981
