19
Iteration:  2567
 C         3.782483        -2.460366        -0.247003
 C         3.109597        -1.215580         0.182341
 O         2.509429        -0.462580        -0.994273
 C         1.604435         0.250390        -0.071897
 C         0.152825        -0.034158        -0.513158
 C         2.292511         1.612929         0.270702
 O         3.565078         1.192918         0.757024
 C         3.484116        -0.139965         1.137734
 C         2.028694        -0.657189         1.068201
 H         2.855199        -3.199013        -0.338492
 H         4.100256        -2.396418        -1.318096
 H         4.598152        -2.748961         0.460613
 H        -0.258761        -1.048286        -0.351073
 H        -0.499239         0.737460         0.016090
 H         0.018243         0.237007        -1.559193
 H         2.318863         2.107637        -0.689776
 H         1.739332         2.305145         0.968913
 H         4.154150        -0.233879         1.937743
 H         1.383066        -1.119438         1.871186
