19
Iteration:  3170
 C         3.612833        -2.622458         0.053228
 C         3.205572        -1.198365         0.147389
 O         2.703363        -0.587513        -1.023381
 C         1.643022         0.211854        -0.163355
 C         0.145260         0.122332        -0.384648
 C         2.222709         1.627698         0.032921
 O         3.555494         1.243815         0.612580
 C         3.385757        -0.069272         1.165392
 C         2.074257        -0.559986         1.068128
 H         2.776720        -3.145408        -0.527279
 H         4.611950        -2.802464        -0.497005
 H         3.591847        -3.156661         0.994268
 H        -0.271377         0.246278        -1.324043
 H        -0.310119        -0.854621        -0.044900
 H        -0.292550         0.787781         0.286773
 H         2.374276         2.150636        -0.864876
 H         1.451941         1.921321         0.727866
 H         4.052633        -0.191620         2.041706
 H         1.466837        -0.994626         1.862361
