19
Iteration:  3927charge 0 multiplicity 1
 C         3.601376        -2.592273         0.264467
 C         3.182458        -1.184550         0.191236
 O         2.496787        -0.629960        -1.040645
 C         1.580383         0.233689        -0.175236
 C         0.164673         0.218132        -0.390332
 C         2.272929         1.555411        -0.045401
 O         3.585933         1.147223         0.454614
 C         3.514874        -0.038171         1.092740
 C         2.135372        -0.543317         1.175232
 H         2.936998        -3.271757        -0.234957
 H         4.731201        -2.917032         0.035948
 H         3.445636        -2.776301         1.304076
 H        -0.084964        -0.582148        -1.002401
 H        -0.313504        -0.049306         0.575426
 H        -0.110698         1.197220        -0.777239
 H         2.321530         2.139420        -0.973635
 H         1.689011         2.183159         0.618615
 H         4.189545        -0.178668         1.894420
 H         1.505111        -1.210861         1.688552
