19
Iteration:  2595charge 0 multiplicity 1
 C         3.605749        -2.566622        -0.172799
 C         3.148081        -1.176506         0.081931
 O         2.662202        -0.310490        -1.080746
 C         1.666030         0.182940        -0.124866
 C         0.169928        -0.027109        -0.435600
 C         2.241091         1.547175         0.222657
 O         3.507633         1.272035         0.717798
 C         3.453692        -0.123647         1.190350
 C         2.083731        -0.720198         1.151186
 H         2.734578        -3.120474        -0.256977
 H         4.192523        -2.709789        -1.055657
 H         4.092209        -2.886684         0.748822
 H        -0.116518        -0.889538        -1.061277
 H        -0.378246        -0.172519         0.521016
 H        -0.125883         0.927818        -0.890011
 H         2.215247         2.135359        -0.753677
 H         1.500738         2.050391         0.861776
 H         4.202560        -0.189080         2.008288
 H         1.607952        -1.314073         1.846822
