19
Iteration:  1381
 C         3.849884        -2.498207        -0.021630
 C         3.225170        -1.167114         0.183104
 O         2.179566        -0.935228        -0.730574
 C         1.500782         0.089198         0.173676
 C        -0.041376         0.207177         0.126687
 C         2.165810         1.375877        -0.240487
 O         3.571892         1.291613        -0.014844
 C         3.637119         0.117100         0.781759
 C         2.462373        -0.355621         1.380920
 H         4.986578        -2.455594         0.103598
 H         3.371910        -3.211397         0.587325
 H         3.641447        -2.543082        -1.128671
 H        -0.253612        -0.387462        -0.729716
 H        -0.507989        -0.238205         0.955834
 H        -0.369715         1.243368        -0.038635
 H         2.073940         1.415117        -1.298545
 H         1.786710         2.216089         0.314982
 H         4.637232         0.162240         1.313329
 H         2.058407        -0.537509         2.346219
