19
Iteration:  2582
 C         3.643507        -2.540648        -0.206081
 C         3.118240        -1.139012         0.071183
 O         2.669287        -0.360596        -0.978689
 C         1.587351         0.226027        -0.070849
 C         0.174098         0.007725        -0.428759
 C         2.168394         1.559703         0.171561
 O         3.538022         1.211465         0.693191
 C         3.455399        -0.177692         1.209659
 C         2.089435        -0.668292         1.091451
 H         2.964760        -3.370707        -0.256732
 H         4.217781        -2.439133        -1.168255
 H         4.463699        -2.825389         0.482692
 H         0.205806        -1.059795        -0.663767
 H        -0.477929         0.253716         0.369412
 H        -0.207675         0.460018        -1.380281
 H         2.508396         2.228564        -0.705803
 H         1.683235         2.135758         0.993742
 H         4.109702        -0.487444         2.107509
 H         1.434023        -1.115985         1.851297
