19
Iteration:  2778
 C         3.587712        -2.629559        -0.031283
 C         3.168704        -1.192801         0.164886
 O         2.560363        -0.516879        -1.087817
 C         1.593080         0.145955        -0.105590
 C         0.215117         0.111612        -0.432738
 C         2.173466         1.511151         0.143910
 O         3.541890         1.310193         0.674175
 C         3.476533        -0.039327         1.149110
 C         2.193059        -0.578349         1.080010
 H         2.712068        -3.221509        -0.294886
 H         4.309289        -2.821421        -0.910550
 H         4.191357        -3.067512         0.828780
 H        -0.410663        -0.306395         0.371458
 H        -0.190605         1.070502        -0.709314
 H         0.163230        -0.633389        -1.243954
 H         2.108464         2.216175        -0.713923
 H         1.705590         2.021430         0.988431
 H         4.215036        -0.307520         1.886641
 H         1.725016        -0.982503         1.910423
