19
Iteration:  4766
 C         3.898277        -2.502703        -0.061307
 C         3.084951        -1.220554         0.117436
 O         2.474356        -0.556866        -1.049485
 C         1.564514         0.157421        -0.044985
 C         0.137296         0.270716        -0.418078
 C         2.196478         1.531038         0.167809
 O         3.617196         1.223893         0.709227
 C         3.494207        -0.115914         1.076950
 C         1.993969        -0.728607         1.040429
 H         3.410120        -3.306630        -0.624040
 H         4.864874        -2.361010        -0.618258
 H         4.159947        -2.822079         0.990106
 H        -0.042478         1.049311        -1.233067
 H        -0.295486        -0.646292        -0.787618
 H        -0.523954         0.655175         0.447512
 H         2.382969         2.042326        -0.782042
 H         1.684240         2.188120         0.890348
 H         4.190640        -0.401598         1.922691
 H         1.320347        -1.172175         1.815689
