19
Iteration:  1040charge 0 multiplicity 1
 C         3.998213        -2.471835         0.173968
 C         3.062324        -1.209882         0.114518
 O         2.031882        -0.899078        -0.858817
 C         1.487702         0.152752         0.151682
 C        -0.052383         0.176574         0.311469
 C         2.144675         1.473021        -0.314390
 O         3.645561         1.316523         0.106595
 C         3.766979         0.045582         0.636835
 C         2.397152        -0.440482         1.200755
 H         4.341811        -2.544968         1.173255
 H         3.430041        -3.431177        -0.027627
 H         4.876342        -2.380844        -0.428070
 H        -0.434328         1.038948        -0.253647
 H        -0.290098        -0.864150        -0.022614
 H        -0.339142         0.317354         1.339551
 H         2.060262         1.516684        -1.413567
 H         1.781223         2.372840         0.131556
 H         4.750341        -0.075535         1.058415
 H         2.364932        -0.746266         2.277605
