19
Iteration:  2697charge 0 multiplicity 1
 C         3.966273        -2.313814        -0.163420
 C         3.030847        -1.317103         0.212130
 O         2.531414        -0.604639        -0.974037
 C         1.475064         0.187717        -0.139737
 C         0.057165         0.246130        -0.393590
 C         2.345735         1.536790         0.039968
 O         3.659522         1.140259         0.626197
 C         3.384098        -0.192711         1.218275
 C         1.977478        -0.629118         1.139170
 H         3.475120        -3.073419        -0.810127
 H         4.596719        -1.693016        -0.721530
 H         4.505444        -2.781919         0.623507
 H        -0.313239         1.292022        -0.498290
 H        -0.059162        -0.459004        -1.302686
 H        -0.519315        -0.343235         0.383051
 H         2.644687         2.062166        -0.837581
 H         1.861871         2.164546         0.863873
 H         3.874888        -0.233926         2.251959
 H         1.091851        -1.130513         1.777881
