19
Iteration:  2288charge 0 multiplicity 1
 C         3.951728        -2.375183        -0.367638
 C         3.225083        -1.232642         0.065277
 O         2.419136        -0.588496        -0.938518
 C         1.531198         0.054866        -0.002792
 C         0.137680         0.313376        -0.509411
 C         2.229315         1.515238         0.210371
 O         3.491077         1.272153         0.865663
 C         3.438068        -0.255890         1.188853
 C         2.089307        -0.706868         1.139156
 H         3.457380        -2.561766        -1.331532
 H         5.045685        -2.352900        -0.702268
 H         3.602275        -3.219990         0.297184
 H         0.222655         0.214113        -1.577718
 H        -0.727013        -0.246199        -0.219718
 H        -0.136598         1.394678        -0.363968
 H         2.403675         1.963327        -0.796524
 H         1.558046         2.348486         0.567819
 H         4.251393        -0.396125         1.841266
 H         1.579459        -1.247034         1.902472
