19
Iteration:  1346
 C         3.728592        -2.571646         0.104228
 C         3.148541        -1.221294         0.168101
 O         2.093645        -0.909687        -0.758782
 C         1.550871         0.153134         0.198396
 C         0.047571         0.018452         0.136586
 C         2.179175         1.477792        -0.258590
 O         3.589588         1.430782         0.020348
 C         3.738975         0.145670         0.688723
 C         2.480434        -0.358233         1.323448
 H         4.531312        -2.750142         0.932398
 H         3.071246        -3.450237         0.055219
 H         4.294996        -2.689564        -0.855591
 H        -0.298522         0.319844        -0.866360
 H        -0.197544        -1.034867         0.300169
 H        -0.551265         0.647071         0.783407
 H         1.967843         1.585688        -1.315164
 H         1.704417         2.319080         0.208662
 H         4.794507         0.290124         1.015044
 H         2.304344        -0.703970         2.332789
