19
Iteration:  1689charge 0 multiplicity 1
 C         3.637215        -2.603725        -0.027086
 C         3.223679        -1.162138         0.111695
 O         2.311435        -0.648495        -0.913242
 C         1.565359         0.151007         0.113135
 C         0.015108        -0.024651        -0.103591
 C         2.121746         1.609827         0.072865
 O         3.543743         1.361902         0.265251
 C         3.709293         0.064677         0.837785
 C         2.451184        -0.608690         1.182264
 H         4.619907        -2.856809        -0.403555
 H         3.665367        -3.105469         0.979274
 H         2.935174        -3.168209        -0.659149
 H        -0.021616        -0.682351        -0.968939
 H        -0.674055        -0.418871         0.650022
 H        -0.341546         0.929188        -0.420632
 H         1.879690         2.360011        -0.720318
 H         1.951382         2.076943         1.130555
 H         4.584645        -0.099472         1.547220
 H         2.087280        -0.962029         2.091741
