19
Iteration:  2594
 C         3.606829        -2.565529        -0.173890
 C         3.146898        -1.177907         0.079489
 O         2.666119        -0.307683        -1.076432
 C         1.662323         0.190659        -0.126070
 C         0.169600        -0.031024        -0.427795
 C         2.238641         1.539911         0.220106
 O         3.511168         1.271771         0.712292
 C         3.444951        -0.134282         1.192375
 C         2.083213        -0.716556         1.155978
 H         2.733736        -3.140462        -0.282013
 H         4.194698        -2.708733        -1.090890
 H         4.137562        -2.853911         0.754381
 H        -0.091468        -0.893361        -1.039323
 H        -0.390608        -0.135917         0.496513
 H        -0.124675         0.926426        -0.939164
 H         2.241034         2.167959        -0.768829
 H         1.485096         2.063590         0.863239
 H         4.209057        -0.182451         2.035441
 H         1.601260        -1.323861         1.871312
