19
Iteration:  1016
 C         3.912934        -2.481952         0.005107
 C         3.142177        -1.239277         0.139704
 O         2.097116        -1.003434        -0.758251
 C         1.564625         0.004296         0.106202
 C         0.056093         0.352060         0.205286
 C         2.127898         1.402658        -0.290849
 O         3.490567         1.346343         0.053120
 C         3.675358         0.175052         0.785793
 C         2.481668        -0.499247         1.301096
 H         4.636671        -2.479195         0.783353
 H         3.206075        -3.380928         0.200392
 H         4.531013        -2.523012        -0.897904
 H        -0.056386         1.307316        -0.331559
 H        -0.520222        -0.513664        -0.090358
 H        -0.158643         0.589260         1.254753
 H         1.966384         1.591514        -1.399379
 H         1.650532         2.233243         0.297454
 H         4.749077         0.316561         1.251877
 H         2.101668        -0.610386         2.286819
