19
Iteration:  4188charge 0 multiplicity 1
 C         3.852257        -2.583039         0.118038
 C         3.155426        -1.211313         0.140876
 O         2.381057        -0.667609        -0.996389
 C         1.622691         0.144341        -0.098057
 C         0.051595         0.399167        -0.396975
 C         2.293814         1.544811        -0.010670
 O         3.605041         1.181747         0.539979
 C         3.483173        -0.087623         1.139128
 C         2.065854        -0.643307         1.074144
 H         3.276947        -3.408758        -0.230632
 H         4.982479        -2.488482        -0.142756
 H         3.913863        -2.772402         1.176196
 H        -0.391267         1.396390        -0.354766
 H        -0.021858         0.182198        -1.505998
 H        -0.551390        -0.402043         0.008297
 H         2.382992         2.160262        -0.888032
 H         1.771493         2.192277         0.643614
 H         3.998245        -0.216967         2.110194
 H         1.615203        -1.035749         1.997575
