19
Iteration:  1827
 C         3.720102        -2.583392        -0.139734
 C         3.232634        -1.193348         0.073322
 O         2.313140        -0.670518        -0.946321
 C         1.529698         0.175670         0.135458
 C         0.021055         0.128005        -0.294372
 C         2.052416         1.500622         0.193356
 O         3.580783         1.366434         0.399924
 C         3.720990         0.034250         0.882079
 C         2.382245        -0.669078         1.275334
 H         3.313176        -3.244330         0.688987
 H         3.254824        -2.943235        -1.032305
 H         4.833408        -2.507858        -0.088052
 H        -0.636375        -0.495853         0.315770
 H        -0.361337         1.195796        -0.331659
 H         0.007514        -0.211811        -1.358380
 H         2.169178         2.155176        -0.681540
 H         1.516372         2.004306         1.111478
 H         4.661988        -0.155589         1.510487
 H         2.080418        -1.045920         2.213130
