19
Iteration:  4661charge 0 multiplicity 1
 C         3.529870        -2.622959        -0.166145
 C         3.144902        -1.198133         0.148600
 O         2.560353        -0.473530        -0.962892
 C         1.536723         0.228465        -0.014885
 C         0.101413         0.023643        -0.624515
 C         2.278067         1.617523         0.068543
 O         3.603600         1.275420         0.694530
 C         3.559741        -0.046336         1.239820
 C         2.181641        -0.689015         1.204030
 H         2.750600        -3.337322        -0.146637
 H         4.153902        -2.523922        -1.057775
 H         4.282694        -3.030839         0.564589
 H        -0.550778        -0.179269         0.245331
 H        -0.388249         0.915745        -1.130246
 H         0.151962        -0.906262        -1.282076
 H         2.287570         1.929158        -0.980716
 H         1.876805         2.425699         0.778762
 H         4.284435        -0.126343         2.119224
 H         1.597893        -1.150301         2.041388
