19
Iteration:  3693charge 0 multiplicity 1
 C         3.592307        -2.649662         0.102919
 C         3.108424        -1.181571         0.121509
 O         2.474575        -0.585061        -0.947576
 C         1.595199         0.233844        -0.025692
 C         0.158297         0.105421        -0.539508
 C         2.285966         1.631747         0.062586
 O         3.609023         1.284826         0.611587
 C         3.572724        -0.087190         1.005215
 C         2.140592        -0.626258         1.153406
 H         2.761429        -3.450217        -0.055610
 H         4.381698        -2.853373        -0.602098
 H         3.960973        -2.885762         1.171194
 H        -0.360014         1.011439        -0.946478
 H         0.023095        -0.546598        -1.341269
 H        -0.489231        -0.327260         0.187806
 H         2.320499         2.064462        -0.900107
 H         1.656731         2.339266         0.613527
 H         4.388684        -0.278858         1.722102
 H         1.634830        -0.783871         2.078478
