19
Iteration:  3825
 C         3.867364        -2.594119         0.155064
 C         3.152840        -1.260734         0.187307
 O         2.449608        -0.719410        -0.917816
 C         1.549576         0.180388        -0.146133
 C         0.067679         0.326906        -0.414415
 C         2.368284         1.617538        -0.060574
 O         3.628216         1.180296         0.555955
 C         3.433434        -0.084617         1.029135
 C         1.973419        -0.529725         1.107739
 H         3.074453        -3.340940         0.247041
 H         4.225114        -2.898337        -0.846446
 H         4.696940        -2.631757         0.932565
 H        -0.426837        -0.343181         0.344764
 H        -0.218629         1.339088        -0.281379
 H        -0.213351        -0.082062        -1.386685
 H         2.454535         1.965405        -1.044699
 H         1.744760         2.164077         0.601065
 H         4.082482        -0.177587         1.959114
 H         1.438405        -0.646125         2.078775
