19
Iteration:  3630
 C         3.848039        -2.540038         0.028757
 C         3.037991        -1.307511         0.176455
 O         2.443134        -0.628990        -1.011911
 C         1.585433         0.202168        -0.105782
 C         0.093863         0.290349        -0.462890
 C         2.306955         1.524470        -0.042408
 O         3.603366         1.147274         0.597265
 C         3.458308        -0.108228         1.217498
 C         2.034825        -0.549421         1.175155
 H         3.360782        -3.439892        -0.029659
 H         4.445284        -2.152985        -0.861229
 H         4.715093        -2.559032         0.774688
 H         0.112216         0.656353        -1.523432
 H        -0.364322        -0.636194        -0.279204
 H        -0.327601         1.068691         0.194295
 H         2.549058         1.928490        -1.001137
 H         1.809890         2.364246         0.561034
 H         4.139832        -0.192248         2.058113
 H         1.477075        -0.885838         2.015373
