19
Iteration:  3307charge 0 multiplicity 1
 C         3.682364        -2.519875         0.126484
 C         3.095018        -1.173025         0.122503
 O         2.385737        -0.639336        -1.063211
 C         1.626286         0.235851        -0.082289
 C         0.187850         0.158483        -0.511422
 C         2.321872         1.528982        -0.030633
 O         3.527801         1.277339         0.786534
 C         3.559012        -0.133895         1.049019
 C         2.111389        -0.618263         1.114643
 H         2.834199        -3.251833         0.316212
 H         4.378833        -2.591589        -0.731970
 H         4.251444        -2.675026         1.092019
 H         0.090101         0.914990        -1.354284
 H         0.033882        -0.892136        -0.800395
 H        -0.425149         0.484719         0.396727
 H         2.775974         1.816377        -1.031958
 H         1.562632         2.167260         0.383036
 H         4.308258        -0.228531         1.825516
 H         1.615480        -1.093445         1.988986
