19
Iteration:  2556charge 0 multiplicity 1
 C         3.809407        -2.441389        -0.264610
 C         3.093585        -1.170389         0.096253
 O         2.419653        -0.550031        -1.009694
 C         1.561830         0.177733        -0.068847
 C         0.137822         0.071809        -0.558116
 C         2.310960         1.586461         0.246021
 O         3.598709         1.273385         0.776751
 C         3.455811        -0.150541         1.179135
 C         2.066859        -0.683679         1.182856
 H         3.165848        -3.436128        -0.327932
 H         4.299523        -2.186674        -1.238101
 H         4.661089        -2.764089         0.387056
 H        -0.249334        -0.916419        -0.224830
 H        -0.594689         0.889826        -0.341039
 H         0.280726        -0.028400        -1.629428
 H         2.611630         2.239990        -0.547831
 H         1.745707         2.145347         1.057581
 H         4.116791        -0.466352         1.941094
 H         1.482296        -1.129459         2.022535
