19
Iteration:  4034charge 0 multiplicity 1
 C         3.657913        -2.568937         0.085716
 C         3.076286        -1.184568         0.221419
 O         2.435071        -0.647808        -0.958458
 C         1.629792         0.189559        -0.074390
 C         0.208825         0.189166        -0.528288
 C         2.301598         1.484405         0.025410
 O         3.643403         1.286299         0.522120
 C         3.441142        -0.100133         1.105192
 C         2.065674        -0.541039         1.190219
 H         2.972500        -3.397516         0.371792
 H         4.097745        -2.719579        -0.968188
 H         4.526034        -2.570482         0.754837
 H        -0.448387        -0.300079         0.138344
 H        -0.069765         1.277360        -0.798165
 H         0.144131        -0.401350        -1.485101
 H         2.552637         1.839434        -0.969839
 H         1.846820         2.238737         0.753833
 H         4.099754        -0.297149         1.969037
 H         1.499854        -0.909498         2.027921
