19
Iteration:  1914charge 0 multiplicity 1
 C         3.787464        -2.450725        -0.183882
 C         3.153103        -1.145693         0.142230
 O         2.299827        -0.709634        -0.958051
 C         1.582359         0.176417         0.027588
 C         0.055253         0.086113        -0.159396
 C         2.319418         1.511637        -0.006587
 O         3.541001         1.286604         0.563557
 C         3.643723        -0.040536         0.979856
 C         2.198538        -0.572048         1.193894
 H         4.893904        -2.239299        -0.134752
 H         3.608164        -3.276780         0.491470
 H         3.415596        -2.868816        -1.155588
 H        -0.103907        -0.713486        -0.872589
 H        -0.612526        -0.041420         0.707094
 H        -0.385861         0.972946        -0.650642
 H         2.456188         1.753894        -1.088145
 H         1.628415         2.311641         0.353734
 H         4.211263        -0.233938         1.906969
 H         1.608884        -1.080736         1.948983
