19
Iteration:  1791
 C         3.899356        -2.372215        -0.186432
 C         3.105955        -1.229472         0.126138
 O         2.247385        -0.705140        -0.956456
 C         1.558355         0.148665         0.089365
 C         0.054981         0.187930        -0.070406
 C         2.191515         1.508117        -0.002255
 O         3.673293         1.288809         0.408894
 C         3.570031        -0.086619         0.962414
 C         2.198260        -0.656262         1.221548
 H         3.385753        -3.360996        -0.074421
 H         4.453612        -2.277710        -1.154732
 H         4.707314        -2.462886         0.548535
 H        -0.409209        -0.576804         0.553665
 H        -0.529571         1.060888         0.018435
 H        -0.021479        -0.222467        -1.080901
 H         2.182479         1.957661        -1.055800
 H         1.606502         2.272237         0.672522
 H         4.396015        -0.218790         1.605096
 H         1.604515        -0.918647         2.156106
