19
Iteration:  1152
 C         3.775466        -2.543404         0.211066
 C         3.130904        -1.209780         0.100555
 O         2.145166        -0.853672        -0.797974
 C         1.544881         0.168309         0.126187
 C        -0.004543         0.032883         0.191896
 C         2.135838         1.526105        -0.170558
 O         3.616350         1.392228         0.005582
 C         3.788622         0.079529         0.626686
 C         2.411589        -0.440593         1.254547
 H         4.883023        -2.510455         0.510458
 H         3.260194        -3.172789         0.870994
 H         3.801712        -2.960201        -0.802712
 H        -0.333438        -0.259805        -0.846053
 H        -0.287332        -0.793581         0.885919
 H        -0.661943         0.917310         0.417461
 H         2.015782         1.771386        -1.205137
 H         1.639439         2.224764         0.500421
 H         4.876008         0.048417         0.992891
 H         2.274415        -0.641863         2.367243
