19
Iteration:  2656
 C         3.858666        -2.469699        -0.119965
 C         3.055164        -1.207436         0.117133
 O         2.419215        -0.580494        -0.994946
 C         1.618065         0.177817         0.010139
 C         0.159394         0.222652        -0.528882
 C         2.223692         1.548795         0.157102
 O         3.512533         1.283410         0.729343
 C         3.548011        -0.188830         1.082645
 C         2.108910        -0.686030         1.111542
 H         3.400018        -3.141769        -0.923554
 H         4.958129        -2.398045        -0.365925
 H         3.884869        -3.067305         0.839161
 H         0.259294         0.867558        -1.397905
 H        -0.233506        -0.729679        -0.810530
 H        -0.661267         0.672001         0.121643
 H         2.244038         2.040732        -0.817925
 H         1.605523         2.084736         0.876797
 H         4.200983        -0.466425         1.974284
 H         1.620185        -1.276320         1.918676
