19
Iteration:  4876
 C         3.804000        -2.518443        -0.067629
 C         3.149391        -1.168043         0.012728
 O         2.494195        -0.512190        -1.083708
 C         1.639962         0.219238        -0.112772
 C         0.163437         0.237741        -0.465967
 C         2.140114         1.534042         0.329368
 O         3.518072         1.218603         0.754744
 C         3.472269        -0.158561         1.138749
 C         2.120856        -0.728219         1.023810
 H         3.105186        -3.265071        -0.383041
 H         4.580607        -2.530864        -0.867898
 H         4.183059        -2.826349         0.935815
 H        -0.148611        -0.810964        -0.545284
 H        -0.392057         0.555454         0.302899
 H         0.019888         0.871107        -1.376531
 H         2.335001         2.214949        -0.487534
 H         1.515559         1.916041         1.150865
 H         4.328041        -0.538119         1.696967
 H         1.449121        -1.300324         1.653742
