19
Iteration:  1261charge 0 multiplicity 1
 C         3.727612        -2.544539         0.183406
 C         3.116328        -1.192622         0.194811
 O         2.072589        -0.913619        -0.814574
 C         1.622570         0.082740         0.159576
 C        -0.023606         0.021083         0.134071
 C         2.138092         1.450239        -0.220698
 O         3.599830         1.419153        -0.069218
 C         3.804935         0.194196         0.693113
 C         2.572388        -0.371526         1.339743
 H         3.737646        -2.980529         1.210243
 H         2.980438        -3.029576        -0.337003
 H         4.655572        -2.665921        -0.394907
 H        -0.451200         0.878325        -0.340922
 H        -0.324762        -0.754169        -0.520250
 H        -0.368299        -0.169612         1.138433
 H         1.813836         1.758284        -1.202745
 H         1.623864         2.122716         0.566975
 H         4.884461         0.239112         0.986252
 H         2.238578        -0.567306         2.324579
