19
Iteration:  3257charge 0 multiplicity 1
 C         3.838780        -2.463404         0.041467
 C         3.097133        -1.172811         0.246955
 O         2.543249        -0.703660        -1.013934
 C         1.683607         0.111294        -0.181021
 C         0.096250         0.332062        -0.448617
 C         2.299181         1.492292         0.043355
 O         3.577232         1.120750         0.536264
 C         3.389906        -0.058306         1.220991
 C         1.954197        -0.576377         1.088706
 H         3.178536        -3.318049        -0.031291
 H         4.406102        -2.213501        -0.834426
 H         4.543066        -2.715985         0.798727
 H        -0.093109         1.043004        -1.195192
 H        -0.406014        -0.660877        -0.577132
 H        -0.264260         0.741879         0.462477
 H         2.491160         2.042883        -0.845406
 H         1.614179         2.085573         0.809212
 H         4.025589        -0.181675         2.150996
 H         1.323539        -0.888065         1.872768
