19
Iteration:  1645charge 0 multiplicity 1
 C         3.687050        -2.475470        -0.047922
 C         3.089627        -1.118336         0.053105
 O         2.305704        -0.659333        -0.924455
 C         1.552293         0.202974         0.031221
 C         0.019394        -0.137773         0.057510
 C         2.213958         1.595534         0.003625
 O         3.670939         1.295953         0.248055
 C         3.696942        -0.012814         0.937542
 C         2.251290        -0.536130         1.183071
 H         4.629390        -2.564770         0.454858
 H         3.098605        -3.361746         0.259764
 H         4.020051        -2.563141        -1.102184
 H        -0.272746        -0.679592        -0.822368
 H        -0.193636        -0.856640         0.857594
 H        -0.640325         0.670745         0.226184
 H         2.404966         2.080398        -0.975786
 H         1.702649         2.368862         0.661048
 H         4.585413        -0.026997         1.619281
 H         1.962304        -0.867763         2.128378
