19
Iteration:  1358charge 0 multiplicity 1
 C         3.769011        -2.555613         0.034873
 C         3.129889        -1.206622         0.253825
 O         2.095518        -0.872365        -0.681464
 C         1.566873         0.097994         0.169553
 C         0.058763         0.090567         0.097041
 C         2.081466         1.453648        -0.312435
 O         3.537782         1.409857         0.032576
 C         3.803113         0.133141         0.685159
 C         2.542186        -0.427742         1.323890
 H         4.734337        -2.708159         0.657829
 H         3.021306        -3.270304         0.306465
 H         4.013187        -2.543320        -1.047992
 H        -0.051820         0.066528        -0.972296
 H        -0.425859        -0.768600         0.502628
 H        -0.345122         1.013984         0.503574
 H         2.037578         1.505711        -1.376187
 H         1.642448         2.270483         0.213052
 H         4.662873        -0.007689         1.386362
 H         2.205763        -0.588767         2.294422
