19
Iteration:   140charge 0 multiplicity 1
 C         3.528831        -2.641037         0.254451
 C         3.137121        -1.184252         0.101483
 O         2.336745        -0.592376        -1.043117
 C         1.548287         0.234965         0.025416
 C         0.121493        -0.222784         0.248908
 C         2.115109         1.646679         0.019224
 O         3.576818         1.306760         0.015893
 C         3.815418         0.127056         0.741041
 C         2.414849        -0.489493         1.165179
 H         4.015741        -2.794886         1.201645
 H         2.633936        -3.245730         0.224219
 H         4.212205        -2.929147        -0.655595
 H        -0.681695         0.122295        -0.509887
 H         0.009482        -1.303559         0.049071
 H        -0.367477        -0.016112         1.236350
 H         1.835105         2.199074        -0.912171
 H         1.838535         2.194202         0.968491
 H         4.848251         0.042563         1.195143
 H         1.921534        -0.745421         2.055972
