19
Iteration:  1906charge 0 multiplicity 1
 C         3.744401        -2.452945        -0.188137
 C         3.121940        -1.160417         0.082596
 O         2.325821        -0.659978        -0.980496
 C         1.591499         0.208413         0.044236
 C         0.082279         0.039951        -0.125045
 C         2.287105         1.498639        -0.072656
 O         3.566971         1.276110         0.554358
 C         3.547646        -0.069125         1.053705
 C         2.231137        -0.502005         1.200963
 H         4.801141        -2.391113         0.002449
 H         3.368717        -3.199240         0.556257
 H         3.674093        -2.869699        -1.220795
 H         0.164817        -0.949877        -0.664252
 H        -0.435365        -0.221790         0.844894
 H        -0.278802         0.759343        -0.868097
 H         2.477201         1.943962        -1.049924
 H         1.758420         2.267218         0.662294
 H         4.280620        -0.192415         1.802353
 H         1.679389        -1.152363         1.920287
