19
Iteration:  2926charge 0 multiplicity 1
 C         3.822419        -2.507834         0.007789
 C         3.029500        -1.234118         0.132829
 O         2.358092        -0.620686        -1.041703
 C         1.610761         0.160494        -0.062721
 C         0.084618         0.104572        -0.522653
 C         2.365897         1.595816         0.043105
 O         3.682780         1.177251         0.657901
 C         3.495483        -0.076547         1.133942
 C         2.030579        -0.489646         1.211253
 H         3.048400        -3.389274         0.003069
 H         4.399889        -2.489347        -0.905794
 H         4.485928        -2.666141         0.924294
 H        -0.010492        -0.429867        -1.478883
 H        -0.466059        -0.373024         0.218816
 H        -0.405738         1.076140        -0.760879
 H         2.512552         2.158467        -0.867137
 H         1.828879         2.258303         0.714378
 H         4.136559        -0.302307         1.972844
 H         1.596822        -0.786958         2.113796
