19
Iteration:   271
 C         4.000267        -2.427344         0.063211
 C         3.072177        -1.210977         0.160244
 O         2.131540        -0.890866        -0.872063
 C         1.503566         0.127902         0.128241
 C        -0.021367         0.218978         0.310932
 C         2.170811         1.542643        -0.259498
 O         3.602542         1.214540        -0.006926
 C         3.667369         0.026700         0.754219
 C         2.371094        -0.474256         1.286987
 H         4.715896        -2.515030         0.914559
 H         3.555651        -3.378492        -0.162459
 H         4.674167        -2.277933        -0.873415
 H        -0.393373         1.159258        -0.230918
 H        -0.443306        -0.782054         0.042123
 H        -0.331056         0.385566         1.409782
 H         2.076354         1.797748        -1.334440
 H         1.753744         2.383059         0.329952
 H         4.483170        -0.041214         1.515618
 H         2.036596        -0.967995         2.216504
