19
Iteration:   141charge 0 multiplicity 1
 C         3.527477        -2.655776         0.248229
 C         3.139126        -1.189278         0.099670
 O         2.340111        -0.586780        -1.043020
 C         1.546855         0.239638         0.022591
 C         0.123040        -0.226808         0.248587
 C         2.115348         1.651950         0.018752
 O         3.569128         1.298550         0.019960
 C         3.814608         0.135868         0.738641
 C         2.422018        -0.481046         1.165579
 H         4.018027        -2.821695         1.210157
 H         2.632400        -3.255994         0.243275
 H         4.200567        -2.930937        -0.639641
 H        -0.669128         0.099451        -0.486083
 H         0.014742        -1.300705         0.075178
 H        -0.379293         0.020627         1.202357
 H         1.845505         2.205493        -0.904657
 H         1.804565         2.189667         0.953938
 H         4.870641         0.066080         1.202326
 H         1.908486        -0.747910         2.093003
