19
Iteration:  1625charge 0 multiplicity 1
 C         3.821151        -2.522303        -0.123010
 C         3.180089        -1.209045         0.134606
 O         2.155238        -0.697453        -0.955786
 C         1.543048         0.123024         0.130410
 C         0.030234        -0.011484         0.036228
 C         2.256249         1.503013        -0.139843
 O         3.604516         1.332338         0.356632
 C         3.641142         0.066274         0.893159
 C         2.333867        -0.473795         1.260542
 H         4.325728        -3.000320         0.714502
 H         2.914724        -3.174832        -0.402111
 H         4.554559        -2.339111        -0.914138
 H        -0.244502        -0.202339        -1.001272
 H        -0.391275        -0.848896         0.582486
 H        -0.449759         0.892822         0.357652
 H         2.201542         1.959571        -1.161879
 H         1.776250         2.218654         0.545464
 H         4.604538         0.015397         1.493163
 H         1.929680        -0.789982         2.177280
