19
Iteration:  2332charge 0 multiplicity 1
 C         3.963781        -2.387253        -0.169639
 C         3.056072        -1.152400         0.006909
 O         2.427214        -0.538597        -1.125073
 C         1.562713         0.238241        -0.047808
 C         0.103514         0.205132        -0.380274
 C         2.315222         1.543651         0.162559
 O         3.562611         1.158450         0.913780
 C         3.437691        -0.237310         1.153219
 C         2.001256        -0.757499         1.033787
 H         3.737590        -3.351887        -0.605127
 H         4.648075        -1.974330        -0.989613
 H         4.571530        -2.502334         0.758771
 H        -0.167250         0.536406        -1.367024
 H        -0.263365        -0.794950        -0.221515
 H        -0.368718         0.914702         0.360762
 H         2.633516         1.905608        -0.848877
 H         1.844330         2.458502         0.603078
 H         3.928331        -0.729648         1.906261
 H         1.361162        -1.216983         1.801461
