19
Iteration:  4220
 C         3.637917        -2.596997         0.134143
 C         3.062929        -1.206920         0.105844
 O         2.463819        -0.672601        -1.068024
 C         1.638516         0.147891        -0.116866
 C         0.169958         0.211340        -0.443450
 C         2.278763         1.527613         0.017969
 O         3.567488         1.278519         0.634053
 C         3.569819        -0.059208         1.050784
 C         2.111066        -0.487193         1.209078
 H         2.994565        -3.452996         0.261097
 H         4.398888        -2.845648        -0.710369
 H         4.214949        -2.515650         1.023241
 H        -0.432805         0.782392         0.188603
 H         0.202427         0.498835        -1.535042
 H        -0.359927        -0.737315        -0.398070
 H         2.411587         2.090484        -0.900059
 H         1.708823         2.027507         0.822489
 H         4.282238        -0.442557         1.785202
 H         1.503772        -0.939285         2.027421
