19
Iteration:   672
 C         3.859428        -2.479195         0.009582
 C         3.145857        -1.168859         0.055785
 O         2.030144        -0.949449        -0.759005
 C         1.558407         0.138665         0.216383
 C         0.049696         0.165891         0.224359
 C         2.114440         1.446008        -0.213257
 O         3.560165         1.361095         0.084238
 C         3.743630         0.056324         0.672346
 C         2.509073        -0.422364         1.292011
 H         4.172845        -2.787151         0.990397
 H         3.292384        -3.260068        -0.508477
 H         4.758958        -2.419143        -0.646621
 H        -0.286575         0.914190        -0.556161
 H        -0.289219        -0.837790        -0.226800
 H        -0.460456         0.287005         1.195337
 H         2.062983         1.538717        -1.308014
 H         1.591411         2.391226         0.223509
 H         4.648752        -0.124345         1.303549
 H         2.337734        -0.535670         2.348726
