19
Iteration:  1930
 C         3.916091        -2.469012        -0.169107
 C         3.147179        -1.227058         0.147602
 O         2.286563        -0.710111        -0.927835
 C         1.496874         0.075052         0.020239
 C        -0.023831         0.256568        -0.266264
 C         2.216496         1.490821        -0.070417
 O         3.613832         1.365879         0.599538
 C         3.581228        -0.022411         1.022791
 C         2.225855        -0.697591         1.222636
 H         4.907215        -2.353425        -0.563774
 H         3.887226        -3.219406         0.668580
 H         3.319798        -3.027438        -0.944185
 H        -0.456456        -0.454979        -1.034253
 H        -0.325041        -0.080130         0.741767
 H        -0.145760         1.316907        -0.558825
 H         2.351913         1.852425        -1.102161
 H         1.861780         2.330606         0.576550
 H         4.574498        -0.196188         1.431921
 H         1.943875        -0.942933         2.267575
