19
Iteration:   151
 C         3.496058        -2.771190         0.179638
 C         3.154012        -1.205821         0.074134
 O         2.353898        -0.552331        -0.992350
 C         1.582047         0.210688         0.044496
 C         0.120319        -0.253690         0.212416
 C         2.124961         1.634240        -0.002432
 O         3.484638         1.298753         0.046114
 C         3.750351         0.146068         0.740988
 C         2.488235        -0.346596         1.181098
 H         4.061017        -2.935756         1.088126
 H         2.608398        -3.379651         0.264878
 H         4.210043        -3.217636        -0.650675
 H        -0.515548         0.038246        -0.715268
 H         0.207937        -1.313902         0.549602
 H        -0.208648         0.392529         1.074995
 H         2.107448         2.301897        -0.904524
 H         1.650715         2.218430         0.851506
 H         4.692607         0.290332         1.366989
 H         2.227023        -0.695383         2.135907
