19
Iteration:  4484charge 0 multiplicity 1
 C         3.741169        -2.602019         0.163420
 C         3.162489        -1.206244         0.163677
 O         2.447406        -0.525658        -1.031963
 C         1.598003         0.180414        -0.145445
 C         0.130283         0.225952        -0.501364
 C         2.241270         1.500112         0.070718
 O         3.605664         1.219319         0.614037
 C         3.518676        -0.087761         1.119202
 C         2.105948        -0.583803         1.073314
 H         2.899163        -3.158772        -0.143710
 H         4.398607        -3.028903        -0.633735
 H         4.054664        -2.832126         1.223671
 H        -0.074917         1.265208        -0.991352
 H        -0.217057        -0.625866        -1.076491
 H        -0.471356         0.163048         0.470672
 H         2.296564         1.934047        -0.933447
 H         1.677221         2.096075         0.757717
 H         4.156711        -0.384394         1.945685
 H         1.515456        -1.046026         1.857423
