19
Iteration:  2431charge 0 multiplicity 1
 C         3.578405        -2.510487        -0.250013
 C         3.191915        -1.163699         0.040771
 O         2.521100        -0.409056        -0.971325
 C         1.620372         0.177013         0.041147
 C         0.158064        -0.022113        -0.610518
 C         2.211153         1.577813         0.262231
 O         3.552576         1.306817         0.782126
 C         3.559800        -0.146795         1.138275
 C         2.135365        -0.696602         1.137808
 H         2.771277        -3.176396        -0.666438
 H         4.422050        -2.596430        -1.003564
 H         3.907412        -2.986022         0.707146
 H        -0.572077         0.747028        -0.281803
 H         0.185208        -0.154892        -1.721568
 H        -0.147950        -1.054116        -0.140638
 H         2.211991         2.151355        -0.722461
 H         1.623670         2.214888         0.957581
 H         4.398504        -0.370899         1.838646
 H         1.617456        -1.111488         2.069258
