19
Iteration:  1237
 C         3.860817        -2.511052         0.000880
 C         3.144031        -1.196615         0.189661
 O         2.041827        -0.995743        -0.598171
 C         1.544278         0.144539         0.207017
 C         0.009501         0.103667         0.077215
 C         2.185208         1.448209        -0.288965
 O         3.574510         1.362758         0.031736
 C         3.743723         0.109910         0.630451
 C         2.495540        -0.321732         1.338152
 H         4.297110        -2.789285         1.005459
 H         3.033824        -3.185512        -0.248846
 H         4.535213        -2.544694        -0.849370
 H        -0.380023         0.893704        -0.536460
 H        -0.291076        -0.756038        -0.532573
 H        -0.347974         0.026188         1.059295
 H         2.091495         1.543187        -1.383108
 H         1.657255         2.346854         0.158500
 H         4.637830         0.349770         1.217223
 H         2.151417        -0.490823         2.430679
