19
Iteration:  4633
 C         3.580827        -2.574258         0.037223
 C         3.117504        -1.158608         0.085432
 O         2.587491        -0.524546        -1.149598
 C         1.640432         0.214045        -0.115269
 C         0.235682         0.045177        -0.459385
 C         2.240472         1.567197         0.176496
 O         3.586475         1.233674         0.726320
 C         3.470716        -0.085528         1.088128
 C         2.059485        -0.606233         1.142936
 H         2.620127        -3.250000         0.167945
 H         4.061765        -2.676121        -0.933210
 H         4.355363        -2.890879         0.723092
 H        -0.122466        -0.581589         0.354533
 H        -0.397154         0.969539        -0.527220
 H         0.208826        -0.276831        -1.467807
 H         2.118313         2.302253        -0.650576
 H         1.674255         1.986364         0.999245
 H         4.228150        -0.368058         1.783876
 H         1.388648        -0.781697         1.968065
