19
Iteration:   543
 C         3.371954        -2.622037         0.176860
 C         3.195812        -1.174346         0.117727
 O         2.229505        -0.755658        -0.863713
 C         1.679385         0.071137         0.152501
 C         0.175108        -0.158809         0.070725
 C         2.051521         1.576203         0.073410
 O         3.464059         1.414732        -0.026806
 C         3.842586         0.178525         0.615890
 C         2.597780        -0.398223         1.210310
 H         4.256700        -2.980819         0.796623
 H         2.552932        -3.132197         0.651119
 H         3.751785        -2.938205        -0.858192
 H        -0.207021        -0.182477        -0.957700
 H        -0.070051        -1.141544         0.555147
 H        -0.255012         0.713248         0.610293
 H         1.716197         2.079333        -0.866754
 H         1.901604         2.202537         0.929398
 H         4.736081         0.318475         1.202641
 H         2.597631        -0.552783         2.268447
