19
Iteration:  2602
 C         3.582833        -2.561713        -0.140443
 C         3.163442        -1.132906         0.094678
 O         2.631771        -0.367568        -1.080547
 C         1.656565         0.128102        -0.097364
 C         0.175040        -0.002199        -0.464689
 C         2.209781         1.568869         0.227225
 O         3.493744         1.270093         0.765812
 C         3.510492        -0.056260         1.160050
 C         2.135389        -0.718038         1.056777
 H         2.592784        -3.164551        -0.258354
 H         4.343192        -2.720328        -0.995353
 H         3.964883        -3.119607         0.774258
 H        -0.109985        -0.736728        -1.200775
 H        -0.227221        -0.309753         0.474060
 H        -0.323363         1.004117        -0.696008
 H         2.242198         2.088267        -0.788274
 H         1.616035         2.093064         1.051879
 H         4.268747        -0.364107         1.951460
 H         1.483995        -1.310773         1.804017
