19
Iteration:  4179
 C         3.890392        -2.555441         0.102002
 C         3.115335        -1.183036         0.133672
 O         2.385934        -0.637658        -1.005367
 C         1.513458         0.204480        -0.066765
 C         0.092027         0.324076        -0.453591
 C         2.328020         1.455575        -0.015165
 O         3.636889         1.143484         0.525078
 C         3.431496        -0.091258         1.166990
 C         2.075920        -0.571221         1.165791
 H         3.499530        -3.298044        -0.562498
 H         4.992955        -2.587913        -0.260080
 H         3.778540        -2.816932         1.171464
 H        -0.054451         1.472170        -0.259496
 H        -0.073703         0.145816        -1.503083
 H        -0.625506        -0.231439         0.193734
 H         2.491611         1.901464        -1.008014
 H         1.720752         2.042598         0.687201
 H         4.120221        -0.074356         1.983586
 H         1.475203        -1.054681         1.958088
