19
Iteration:  1958charge 0 multiplicity 1
 C         3.974480        -2.386447        -0.089048
 C         3.143460        -1.233556         0.133641
 O         2.246674        -0.757236        -0.984546
 C         1.489106         0.122853         0.097743
 C         0.111209         0.357879        -0.284446
 C         2.172262         1.482026         0.111327
 O         3.505302         1.204696         0.495894
 C         3.651176        -0.069077         0.991609
 C         2.201742        -0.655976         1.104829
 H         4.586520        -2.259672        -1.027887
 H         4.688429        -2.722122         0.675699
 H         3.317335        -3.306034        -0.040783
 H        -0.143073        -0.238131        -1.146016
 H        -0.427779         0.027131         0.622490
 H         0.001466         1.406604        -0.518409
 H         2.119719         1.916522        -0.906570
 H         1.765580         2.301168         0.738488
 H         4.457873        -0.078317         1.715409
 H         1.721785        -1.033402         2.031329
