19
Iteration:  4434
 C         3.534549        -2.626474         0.077058
 C         3.182484        -1.151633         0.162511
 O         2.451537        -0.596856        -0.997785
 C         1.659681         0.227790        -0.081957
 C         0.184327         0.069309        -0.562711
 C         2.311845         1.538726         0.069485
 O         3.585996         1.271930         0.599043
 C         3.519251        -0.010104         1.128854
 C         2.120252        -0.553431         1.147243
 H         2.654395        -3.372502         0.094113
 H         4.054571        -2.903850        -0.799528
 H         4.195816        -2.761612         0.947677
 H        -0.436515         0.907752        -0.330651
 H         0.306950        -0.165503        -1.626094
 H        -0.353425        -0.776425        -0.134854
 H         2.308671         2.116397        -0.862393
 H         1.625093         1.908470         0.907209
 H         4.243680        -0.234095         1.871992
 H         1.709051        -0.846011         2.140647
