19
Iteration:  2403charge 0 multiplicity 1
 C         3.541758        -2.573553        -0.321369
 C         3.317559        -1.209167         0.111646
 O         2.573765        -0.467233        -0.981565
 C         1.678642         0.098338        -0.024755
 C         0.219066         0.122889        -0.630441
 C         2.045858         1.520321         0.319861
 O         3.494305         1.305787         0.688844
 C         3.547423        -0.051521         1.208896
 C         2.169109        -0.660658         1.225078
 H         2.552246        -3.094398        -0.407295
 H         3.747198        -2.696517        -1.354691
 H         4.223472        -3.152406         0.311022
 H        -0.221403         1.127169        -0.609946
 H         0.264744        -0.295594        -1.631512
 H        -0.290060        -0.440249         0.080501
 H         1.902598         2.242006        -0.462033
 H         1.419851         1.915798         1.155184
 H         4.348190        -0.192619         2.019574
 H         1.793008        -1.185932         2.038890
