19
Iteration:   239
 C         4.068364        -2.287384        -0.062399
 C         3.070731        -1.259432         0.171510
 O         2.062155        -0.934372        -0.801153
 C         1.518734         0.089100         0.048129
 C         0.025621         0.334907         0.242113
 C         2.151812         1.420644        -0.242618
 O         3.589936         1.154663         0.045472
 C         3.666520         0.034569         0.846826
 C         2.370508        -0.499883         1.284692
 H         4.921320        -2.115349         0.654599
 H         3.677989        -3.286290         0.097456
 H         4.420448        -2.041105        -1.125957
 H        -0.688826         0.664718        -0.602617
 H        -0.538400        -0.526955         0.694145
 H        -0.098001         1.205635         0.970537
 H         2.227621         1.852381        -1.255178
 H         1.677394         2.175476         0.449379
 H         4.560047        -0.142513         1.507620
 H         1.978339        -0.726140         2.339925
