19
Iteration:  3794
 C         3.764669        -2.489740         0.202551
 C         3.005842        -1.252916         0.154912
 O         2.338914        -0.729504        -0.987530
 C         1.575775         0.133010        -0.115377
 C         0.162743         0.376021        -0.492089
 C         2.296241         1.481691        -0.035974
 O         3.607338         1.234160         0.601609
 C         3.585483        -0.044726         1.057974
 C         2.147900        -0.620783         1.161484
 H         3.071541        -3.306391         0.079302
 H         4.679253        -2.390814        -0.555288
 H         4.263489        -2.709863         1.195746
 H        -0.502518         0.126386         0.340965
 H        -0.039472         1.338947        -0.965997
 H        -0.159335        -0.387858        -1.227543
 H         2.448017         1.956288        -1.023404
 H         1.668513         2.125452         0.702199
 H         4.546405        -0.075612         1.651116
 H         1.468349        -1.151899         1.890944
