19
Iteration:  3400charge 0 multiplicity 1
 C         3.820275        -2.554763         0.104122
 C         3.085710        -1.154181         0.105517
 O         2.381154        -0.658130        -1.013692
 C         1.574372         0.240128        -0.166873
 C         0.034977         0.133795        -0.508330
 C         2.368201         1.601578         0.116723
 O         3.625696         1.196463         0.676599
 C         3.535306        -0.103464         1.086073
 C         2.069820        -0.555311         1.103260
 H         3.236979        -3.305382        -0.307785
 H         4.820879        -2.466620        -0.328671
 H         3.869810        -2.824840         1.170166
 H         0.088731         0.256505        -1.629927
 H        -0.420159        -0.857458        -0.278251
 H        -0.564816         0.986000        -0.209449
 H         2.569259         2.177122        -0.746465
 H         1.832757         2.116306         0.902653
 H         4.175484        -0.588353         1.802461
 H         1.469150        -0.803815         2.046325
