19
Iteration:  4836
 C         3.610513        -2.580430        -0.235856
 C         3.168696        -1.171719         0.158136
 O         2.595346        -0.364534        -0.953123
 C         1.574572         0.218915        -0.081593
 C         0.144294         0.003796        -0.554056
 C         2.219008         1.583820         0.224635
 O         3.550581         1.195872         0.755695
 C         3.526728        -0.096688         1.172708
 C         2.146964        -0.630648         1.138189
 H         2.666344        -3.235486        -0.284404
 H         4.020341        -2.824749        -1.264211
 H         4.365414        -2.950774         0.484609
 H         0.275332        -0.639177        -1.481054
 H        -0.458425        -0.611294         0.296299
 H        -0.570395         0.755375        -1.028227
 H         2.215348         2.127549        -0.749648
 H         1.681908         2.268227         0.916463
 H         4.367187        -0.342114         1.765453
 H         1.473788        -1.163773         1.767238
