19
Iteration:  1105
 C         3.503087        -2.699229         0.069301
 C         3.274697        -1.204462         0.263140
 O         2.292558        -0.752670        -0.774769
 C         1.519869         0.101698         0.156044
 C         0.088433        -0.146733         0.162707
 C         2.080825         1.572907        -0.170164
 O         3.550466         1.399524        -0.136470
 C         3.782006         0.202435         0.675199
 C         2.536357        -0.330654         1.344727
 H         3.997795        -3.254936         0.821539
 H         2.412237        -3.000598         0.096377
 H         3.991468        -2.819476        -0.875126
 H        -0.264082        -0.360559        -0.852072
 H        -0.238880        -0.972359         0.856237
 H        -0.448511         0.720341         0.515684
 H         1.791153         1.923736        -1.196510
 H         1.917131         2.355149         0.643790
 H         4.659097         0.296742         1.205464
 H         2.326662        -0.588678         2.449172
