19
Iteration:  2973
 C         3.500387        -2.714012        -0.074980
 C         3.267517        -1.233047         0.213551
 O         2.582887        -0.509087        -0.888642
 C         1.564539         0.143287        -0.070642
 C         0.162543         0.129096        -0.588289
 C         2.214678         1.451675         0.088521
 O         3.543879         1.295082         0.523284
 C         3.530043         0.021733         1.193113
 C         2.193171        -0.533414         1.213632
 H         2.560903        -3.029422        -0.529835
 H         4.353348        -2.694710        -0.759916
 H         3.772136        -3.200353         0.865268
 H         0.114998        -0.034598        -1.674851
 H        -0.468970        -0.568819         0.065465
 H        -0.367116         1.125867        -0.647923
 H         2.201088         1.945152        -0.824079
 H         1.682269         2.210069         0.687854
 H         4.372553        -0.156035         1.916880
 H         1.618113        -0.758060         2.169153
