19
Iteration:  1536
 C         3.824991        -2.477169         0.016459
 C         3.021401        -1.243858         0.128402
 O         2.194867        -0.681001        -0.906602
 C         1.618921         0.187238         0.130458
 C         0.006451        -0.034027         0.112194
 C         2.187410         1.549065        -0.116176
 O         3.637484         1.244246         0.057851
 C         3.686027         0.040174         0.834160
 C         2.353069        -0.432375         1.301816
 H         3.344262        -3.187796        -0.652562
 H         4.909376        -2.292287        -0.378022
 H         3.963969        -2.970263         1.033344
 H        -0.532786         0.800410         0.553478
 H        -0.377374        -0.477749        -0.806567
 H        -0.076824        -0.762689         0.891341
 H         1.963278         1.956837        -1.121221
 H         1.690244         2.206065         0.596715
 H         4.580456        -0.093703         1.379556
 H         1.885620        -0.661549         2.292433
