19
Iteration:  4330charge 0 multiplicity 1
 C         3.817656        -2.569781         0.288504
 C         3.091869        -1.158414         0.075703
 O         2.362771        -0.654011        -1.008067
 C         1.594738         0.199045        -0.074558
 C         0.154973         0.326741        -0.451356
 C         2.290340         1.501555        -0.049283
 O         3.504826         1.196137         0.563323
 C         3.565709        -0.132578         1.062305
 C         2.162271        -0.588703         1.123509
 H         3.086519        -3.256971        -0.105624
 H         4.911765        -2.665205        -0.132018
 H         3.884519        -2.960807         1.310007
 H        -0.644981         0.017703         0.263690
 H        -0.072981         1.434436        -0.660415
 H         0.124465        -0.309357        -1.342015
 H         2.313283         1.995158        -1.040547
 H         1.646525         2.212735         0.627374
 H         4.307096        -0.510620         1.743089
 H         1.481371        -0.971294         1.865568
