19
Iteration:  3481
 C         3.757452        -2.572363        -0.001706
 C         2.979152        -1.249748         0.241727
 O         2.447982        -0.585404        -0.989478
 C         1.691776         0.213476        -0.081929
 C         0.178177         0.144520        -0.497541
 C         2.348694         1.567836        -0.054442
 O         3.595651         1.237758         0.633749
 C         3.465114        -0.076544         1.167282
 C         2.016021        -0.574588         1.200129
 H         3.123387        -3.540055        -0.108347
 H         4.234268        -2.529409        -1.020548
 H         4.568724        -2.790476         0.710176
 H        -0.092279         1.020623        -1.082193
 H        -0.094984        -0.741319        -1.078634
 H        -0.314583         0.083754         0.489859
 H         2.506267         1.987524        -1.126131
 H         1.832418         2.459834         0.410639
 H         4.059404        -0.368229         2.029173
 H         1.294480        -0.853389         1.907684
