19
Iteration:   104
 C         3.791254        -2.499212         0.079314
 C         3.159130        -1.148158         0.122245
 O         2.076621        -0.815491        -0.894919
 C         1.550925         0.125149         0.113146
 C        -0.032280         0.031455         0.093362
 C         2.142431         1.503988        -0.129632
 O         3.589876         1.318106         0.136474
 C         3.800328         0.075957         0.807048
 C         2.475030        -0.445289         1.241541
 H         4.341600        -2.744891         1.009055
 H         2.997559        -3.292169        -0.003679
 H         4.527290        -2.636622        -0.748843
 H        -0.425364         1.000628        -0.316381
 H        -0.127891        -0.848405        -0.566570
 H        -0.397158        -0.170309         1.126081
 H         2.089781         1.905647        -1.152453
 H         1.847186         2.336551         0.552530
 H         4.778329        -0.028606         1.160306
 H         2.104801        -0.695650         2.251707
