19
Iteration:  2327
 C         3.980494        -2.373344        -0.203091
 C         3.032172        -1.208860        -0.018104
 O         2.430597        -0.546565        -1.096268
 C         1.580516         0.203532        -0.074738
 C         0.073563         0.238794        -0.373295
 C         2.323731         1.578700         0.140108
 O         3.540740         1.175536         0.904245
 C         3.443001        -0.221617         1.212062
 C         2.014876        -0.759422         1.044213
 H         3.614989        -3.324463        -0.669928
 H         4.730120        -1.889970        -0.812521
 H         4.575810        -2.606577         0.666195
 H        -0.175290         0.499206        -1.446494
 H        -0.345153        -0.776555        -0.120773
 H        -0.292061         1.009980         0.303621
 H         2.835210         1.858266        -0.806480
 H         1.660222         2.327543         0.611240
 H         4.141595        -0.789182         1.985718
 H         1.376664        -1.270086         1.758243
