19
Iteration:   762charge 0 multiplicity 1
 C         3.587273        -2.603285         0.125515
 C         3.098774        -1.210346         0.073830
 O         2.145272        -0.848939        -0.893807
 C         1.563392         0.128801         0.185913
 C         0.038535        -0.087662         0.148755
 C         2.211996         1.529321        -0.013259
 O         3.582279         1.494402         0.116345
 C         3.850422         0.173245         0.551978
 C         2.525609        -0.417639         1.263413
 H         4.625809        -2.555976         0.608415
 H         2.926224        -3.207988         0.669306
 H         3.645293        -3.024654        -0.894702
 H        -0.147917        -0.139266        -0.948610
 H        -0.184013        -1.021719         0.767777
 H        -0.722903         0.722455         0.429432
 H         1.969705         1.785619        -1.101937
 H         1.613683         2.301990         0.597012
 H         4.814889         0.077448         1.086890
 H         2.355144        -0.812748         2.291356
