19
Iteration:   765
 C         3.623218        -2.587472         0.128500
 C         3.111380        -1.210840         0.055116
 O         2.122306        -0.862608        -0.883998
 C         1.592879         0.135828         0.180101
 C         0.037463        -0.061141         0.143630
 C         2.194296         1.527985        -0.032765
 O         3.575682         1.493435         0.123465
 C         3.819498         0.140238         0.575896
 C         2.548237        -0.420638         1.282948
 H         4.610910        -2.575086         0.580117
 H         2.890260        -3.273325         0.630261
 H         3.626121        -2.984836        -0.870012
 H        -0.146766        -0.203659        -0.940931
 H        -0.293775        -0.967000         0.631770
 H        -0.614885         0.804990         0.489360
 H         1.987949         1.830370        -1.100397
 H         1.572002         2.266149         0.586413
 H         4.795447         0.139464         0.936396
 H         2.330546        -0.816934         2.325648
