19
Iteration:  3721charge 0 multiplicity 1
 C         3.518307        -2.566648         0.007131
 C         3.099219        -1.086887         0.191567
 O         2.551599        -0.590729        -1.036390
 C         1.604044         0.225727        -0.072012
 C         0.139157         0.003670        -0.391666
 C         2.374125         1.521383         0.031171
 O         3.634635         1.179045         0.538004
 C         3.522956        -0.009200         1.224589
 C         2.105277        -0.483843         1.141476
 H         2.732982        -3.105810        -0.502804
 H         4.541285        -2.514174        -0.451010
 H         3.602736        -3.127321         0.893667
 H        -0.536267         0.841541        -0.550454
 H         0.099107        -0.513031        -1.469604
 H        -0.438833        -0.777864         0.192874
 H         2.361389         2.034009        -1.022676
 H         1.684318         2.187747         0.594885
 H         4.374422        -0.245994         1.938763
 H         1.305868        -0.840361         1.880997
