19
Iteration:  4426
 C         3.572298        -2.582920         0.028482
 C         3.115548        -1.169237         0.164859
 O         2.474719        -0.582287        -0.945992
 C         1.550797         0.221763        -0.062330
 C         0.154626         0.022233        -0.618279
 C         2.363477         1.548117         0.042757
 O         3.586019         1.230251         0.586666
 C         3.506896        -0.061737         1.142385
 C         2.178646        -0.494162         1.211635
 H         2.688642        -3.195986         0.163663
 H         4.209719        -2.738628        -0.831184
 H         4.117313        -2.864854         0.883556
 H        -0.427922         0.818058        -0.198719
 H         0.199162         0.128735        -1.767876
 H        -0.305556        -0.852053        -0.197283
 H         2.451508         2.008436        -0.951755
 H         1.801127         2.194931         0.719673
 H         4.222162        -0.218447         1.962438
 H         1.819109        -0.856622         2.169039
