19
Iteration:  3613charge 0 multiplicity 1
 C         3.850977        -2.404530        -0.005161
 C         2.908435        -1.241934         0.193551
 O         2.435707        -0.612096        -0.939887
 C         1.657501         0.232636        -0.063295
 C         0.157308         0.187603        -0.465891
 C         2.413202         1.527351        -0.067285
 O         3.605444         1.183751         0.637648
 C         3.435909        -0.152054         1.098664
 C         1.991708        -0.576008         1.196895
 H         3.316044        -3.427267        -0.362576
 H         4.573006        -2.394859        -0.828547
 H         4.308750        -2.720073         0.919389
 H        -0.136883         0.073886        -1.494585
 H        -0.329776        -0.738539         0.075773
 H        -0.403794         1.099251        -0.150455
 H         2.761477         1.719143        -1.144625
 H         1.819130         2.229973         0.480817
 H         4.229393        -0.448272         1.787326
 H         1.273527        -0.818958         2.025388
