19
Iteration:  1326
 C         3.736896        -2.493793         0.210248
 C         3.135172        -1.137970         0.147753
 O         2.117907        -0.841878        -0.856240
 C         1.515662         0.161596         0.081733
 C         0.045309        -0.092550         0.262624
 C         2.146368         1.529552        -0.227029
 O         3.636519         1.302841        -0.024362
 C         3.747566         0.070838         0.689304
 C         2.498692        -0.352924         1.240546
 H         4.020684        -2.689645         1.286988
 H         2.912714        -3.062239        -0.108791
 H         4.553776        -2.710445        -0.498852
 H        -0.548915         0.488320        -0.423473
 H        -0.164260        -1.086787         0.003675
 H        -0.278276         0.112931         1.272171
 H         2.061631         1.914511        -1.214886
 H         1.827406         2.350873         0.407210
 H         4.585560         0.025513         1.410304
 H         2.098807        -0.342588         2.185163
