19
Iteration:  1128
 C         3.486962        -2.556869         0.128443
 C         3.178106        -1.151505         0.102835
 O         2.129958        -0.814754        -0.782564
 C         1.542729         0.099559         0.220266
 C         0.105287        -0.101676         0.075838
 C         2.139177         1.446096        -0.121801
 O         3.511614         1.387164        -0.053143
 C         3.911529         0.199675         0.734258
 C         2.620255        -0.346638         1.288533
 H         4.421693        -2.693906         0.697482
 H         2.696575        -3.100096         0.643809
 H         3.685823        -2.884695        -0.868479
 H         0.032656        -0.450642        -0.973548
 H        -0.383039        -0.851340         0.755532
 H        -0.505272         0.800812         0.090508
 H         1.901975         1.614194        -1.180047
 H         1.691130         2.254254         0.537858
 H         4.869731         0.324018         1.193514
 H         2.561944        -0.635964         2.433869
