19
Iteration:  4723charge 0 multiplicity 1
 C         3.957877        -2.525777         0.010861
 C         3.123493        -1.215335         0.077609
 O         2.405089        -0.586969        -1.043361
 C         1.534780         0.204491        -0.081200
 C        -0.011562         0.299037        -0.443236
 C         2.319061         1.495620         0.168427
 O         3.643321         1.235246         0.693339
 C         3.484694        -0.175581         1.077953
 C         2.011405        -0.669167         1.041331
 H         3.534398        -3.257491        -0.675677
 H         5.005812        -2.294751        -0.393536
 H         4.148165        -2.860271         1.076351
 H        -0.330997         1.376696        -0.284065
 H        -0.159577        -0.059233        -1.418979
 H        -0.651967        -0.394950         0.179720
 H         2.368239         2.161995        -0.706315
 H         1.847530         2.104199         0.922343
 H         4.131139        -0.417220         1.968086
 H         1.346799        -1.097059         1.824262
