19
Iteration:  2349charge 0 multiplicity 1
 C         3.942200        -2.382083        -0.146994
 C         3.082781        -1.194922        -0.022195
 O         2.416115        -0.445598        -1.072011
 C         1.571061         0.210566        -0.040307
 C         0.087798         0.148483        -0.414958
 C         2.363136         1.539752         0.219962
 O         3.546754         1.134969         0.846840
 C         3.418520        -0.199850         1.106824
 C         2.021718        -0.710334         1.039028
 H         3.179299        -3.162264        -0.015027
 H         4.568696        -2.463932        -1.011128
 H         4.609528        -2.466224         0.696207
 H        -0.046080         0.837544        -1.297607
 H        -0.002342        -0.895001        -0.819198
 H        -0.602604         0.372156         0.397275
 H         2.667061         2.067667        -0.711518
 H         1.721261         2.078342         0.915050
 H         4.241283        -0.576864         1.858952
 H         1.457325        -1.161850         1.812735
