19
Iteration:  2851
 C         3.766170        -2.568085        -0.004632
 C         3.110943        -1.208168         0.242174
 O         2.399550        -0.697215        -0.962329
 C         1.623573         0.215509        -0.097549
 C         0.104981         0.211633        -0.514796
 C         2.307963         1.571285         0.048732
 O         3.545800         1.316326         0.653676
 C         3.550828        -0.093513         1.068219
 C         2.125356        -0.661716         1.176922
 H         3.105339        -2.953394        -0.782435
 H         4.616388        -2.374844        -0.567840
 H         4.050217        -3.321009         0.735631
 H        -0.240123        -0.649675        -1.152500
 H        -0.504670         0.350334         0.357234
 H        -0.089419         1.105696        -1.232584
 H         2.492646         2.088715        -0.853114
 H         1.621803         2.275042         0.612428
 H         4.146483        -0.417085         1.893644
 H         1.650279        -1.018311         2.022804
