19
Iteration:  3627
 C         3.851310        -2.529908        -0.000915
 C         3.003115        -1.309653         0.186779
 O         2.434774        -0.596768        -0.993631
 C         1.568150         0.205577        -0.144740
 C         0.123821         0.265166        -0.454607
 C         2.325199         1.509679        -0.051059
 O         3.593136         1.152077         0.603271
 C         3.452804        -0.117693         1.223543
 C         2.063282        -0.548301         1.183719
 H         3.381287        -3.588744        -0.025544
 H         4.464135        -2.106184        -0.756671
 H         4.629147        -2.452147         0.823262
 H         0.123036         0.531939        -1.526098
 H        -0.382434        -0.634844        -0.192527
 H        -0.239488         1.066326         0.148179
 H         2.504877         1.936832        -1.015071
 H         1.886816         2.391507         0.484446
 H         4.199064        -0.344386         2.035107
 H         1.380607        -0.796447         2.073344
