19
Iteration:   380charge 0 multiplicity 1
 C         3.729121        -2.535176         0.116511
 C         3.191560        -1.138710         0.049856
 O         2.073329        -0.722932        -0.902863
 C         1.527937         0.127147         0.083902
 C         0.057153        -0.109929         0.236321
 C         2.192375         1.556597        -0.118171
 O         3.677378         1.295355         0.071062
 C         3.739566         0.097654         0.754969
 C         2.389037        -0.401060         1.216668
 H         4.566350        -2.613989         0.846974
 H         3.083879        -3.208420         0.576771
 H         4.133239        -2.772487        -0.898577
 H        -0.416111        -0.063040        -0.772080
 H        -0.154546        -1.118791         0.637025
 H        -0.543909         0.700012         0.704929
 H         2.090555         2.096883        -1.069275
 H         1.655847         2.119590         0.675275
 H         4.547710        -0.154415         1.334767
 H         2.152231        -0.702810         2.285075
