19
Iteration:  3903charge 0 multiplicity 1
 C         3.506391        -2.613804         0.167288
 C         3.092758        -1.258310         0.268575
 O         2.496632        -0.695057        -0.975576
 C         1.553678         0.150843        -0.119996
 C         0.153922         0.136585        -0.501618
 C         2.323663         1.560288         0.033798
 O         3.652266         1.341303         0.460844
 C         3.571275         0.033143         1.076437
 C         2.168222        -0.561280         1.170020
 H         2.753509        -3.186426        -0.322642
 H         4.437297        -2.727082        -0.501175
 H         3.657729        -3.062228         1.158026
 H        -0.027492        -0.710856        -1.113656
 H        -0.535747        -0.037378         0.340196
 H         0.103563         1.099763        -1.051136
 H         2.292864         2.037314        -0.926580
 H         1.690933         2.234356         0.614901
 H         4.251538        -0.070622         1.906973
 H         1.614139        -0.689961         2.109061
