19
Iteration:   376charge 0 multiplicity 1
 C         3.707671        -2.541777         0.130705
 C         3.157635        -1.129576         0.069903
 O         2.117778        -0.684657        -0.902163
 C         1.547400         0.140835         0.072801
 C         0.076631        -0.140377         0.232768
 C         2.215779         1.565131        -0.112158
 O         3.639467         1.288917         0.059441
 C         3.689815         0.097208         0.733593
 C         2.402951        -0.398367         1.211083
 H         4.521594        -2.647984         0.827243
 H         2.949158        -3.243840         0.663040
 H         4.121767        -2.913183        -0.867927
 H        -0.437589        -0.153340        -0.745493
 H        -0.039894        -1.149115         0.620721
 H        -0.401347         0.631015         0.857829
 H         2.048834         2.110765        -1.063925
 H         1.705280         2.120347         0.751492
 H         4.691834        -0.106548         1.301010
 H         2.195812        -0.829874         2.166478
