19
Iteration:   162charge 0 multiplicity 1
 C         3.466488        -2.728309         0.104949
 C         3.179175        -1.178546         0.079996
 O         2.323343        -0.614336        -0.911889
 C         1.602403         0.124384         0.084885
 C         0.186241        -0.194108         0.186419
 C         2.094012         1.577936        -0.053552
 O         3.544245         1.428538         0.041593
 C         3.755440         0.132088         0.745589
 C         2.451181        -0.392360         1.217923
 H         4.040088        -2.878145         1.013555
 H         2.520565        -3.249435         0.151507
 H         4.021490        -3.138739        -0.852569
 H        -0.325666        -0.372577        -0.844612
 H        -0.022196        -1.189445         0.671996
 H        -0.374969         0.550532         0.851608
 H         1.787178         2.035123        -1.043719
 H         1.879388         2.222684         0.840816
 H         4.560599         0.044932         1.565300
 H         2.267459        -0.536427         2.266421
