19
Iteration:  2928charge 0 multiplicity 1
 C         3.805383        -2.515244        -0.003826
 C         3.033202        -1.216190         0.143503
 O         2.357227        -0.624713        -1.030448
 C         1.623447         0.170457        -0.067976
 C         0.097952         0.095998        -0.528023
 C         2.355031         1.597705         0.051214
 O         3.680052         1.175459         0.647720
 C         3.505411        -0.059192         1.133369
 C         2.017872        -0.499528         1.209614
 H         3.109585        -3.377377         0.002278
 H         4.372763        -2.485641        -0.898544
 H         4.440365        -2.741479         0.882901
 H         0.038053        -0.450031        -1.496955
 H        -0.478449        -0.389458         0.234737
 H        -0.400151         1.090971        -0.761567
 H         2.545933         2.098191        -0.855453
 H         1.792264         2.251655         0.738579
 H         4.173924        -0.321754         1.988181
 H         1.600890        -0.780156         2.150860
