19
Iteration:  3363
 C         3.620047        -2.547281        -0.026883
 C         3.067575        -1.237716         0.240441
 O         2.646105        -0.525912        -0.879366
 C         1.640746         0.219283        -0.012357
 C         0.210572         0.091140        -0.524828
 C         2.235415         1.580729         0.090148
 O         3.534799         1.175235         0.463207
 C         3.451596        -0.072700         1.134006
 C         2.068931        -0.581336         1.163867
 H         2.935147        -3.048319        -0.823841
 H         4.550192        -2.591182        -0.546839
 H         3.743156        -3.121032         0.873745
 H         0.230788         0.090689        -1.615367
 H        -0.445636        -0.806777        -0.254740
 H        -0.369149         0.999634        -0.155302
 H         2.468082         2.097816        -0.873579
 H         1.603335         2.214987         0.710296
 H         4.394352        -0.139336         1.706809
 H         1.514078        -0.913916         1.986876
