19
Iteration:  2500
 C         4.052536        -2.414488        -0.163461
 C         3.155079        -1.239398         0.083902
 O         2.444723        -0.579715        -1.044312
 C         1.531831         0.131870        -0.132086
 C         0.060864         0.448324        -0.371004
 C         2.201914         1.441718         0.157394
 O         3.464960         1.211679         0.735465
 C         3.491891        -0.162701         1.214206
 C         2.106833        -0.797761         1.084369
 H         3.488391        -3.249601        -0.846709
 H         5.020844        -2.228536        -0.647043
 H         4.184262        -2.884191         0.852461
 H        -0.621104         0.089048         0.441212
 H        -0.125750         1.548289        -0.556752
 H        -0.125397        -0.074524        -1.277767
 H         2.487946         1.807099        -0.809758
 H         1.536563         2.259772         0.578695
 H         4.037832        -0.486985         2.105136
 H         1.398806        -1.191338         1.742048
