19
Iteration:  4059
 C         3.615714        -2.583680         0.235454
 C         3.094925        -1.160245         0.204491
 O         2.484671        -0.660176        -1.075001
 C         1.610126         0.271844        -0.191895
 C         0.053199         0.160841        -0.520609
 C         2.293369         1.595106         0.088358
 O         3.620508         1.231531         0.602951
 C         3.578768        -0.082683         1.061856
 C         2.131145        -0.624191         1.087583
 H         2.858832        -3.315603         0.453482
 H         4.119839        -2.889550        -0.757420
 H         4.393324        -2.555323         0.973518
 H        -0.468421         0.006022         0.476744
 H        -0.332330         0.998666        -1.120446
 H        -0.141157        -0.756628        -1.056637
 H         2.677155         2.233790        -0.723978
 H         1.876649         2.116199         0.993106
 H         4.295603        -0.303935         1.889422
 H         1.565381        -1.001403         1.949000
