19
Iteration:  1466
 C         3.594264        -2.622943         0.100844
 C         3.259441        -1.174608         0.084464
 O         2.236680        -0.817821        -0.858036
 C         1.534987         0.175890         0.133967
 C         0.048141        -0.000918         0.161198
 C         2.066435         1.507720        -0.152577
 O         3.557022         1.410926         0.096923
 C         3.794217         0.134279         0.695198
 C         2.517549        -0.471313         1.300078
 H         4.415286        -2.822039        -0.677844
 H         3.999668        -2.935999         1.021199
 H         2.762068        -3.290260        -0.123871
 H        -0.315440        -0.562201         1.022131
 H        -0.408128         0.970112        -0.007222
 H        -0.126423        -0.593300        -0.769773
 H         1.886539         1.894714        -1.162054
 H         1.697033         2.355828         0.476068
 H         4.671235         0.151999         1.398231
 H         1.990511        -0.637687         2.223148
