19
Iteration:  2646charge 0 multiplicity 1
 C         3.764099        -2.552165        -0.081524
 C         3.115534        -1.231549         0.054392
 O         2.380091        -0.567443        -1.008004
 C         1.564319         0.188342        -0.066309
 C         0.192455         0.171366        -0.555152
 C         2.179884         1.513694         0.244337
 O         3.553057         1.312181         0.814272
 C         3.558642        -0.048443         1.070619
 C         2.177215        -0.724410         1.094562
 H         3.280256        -3.197544        -0.889738
 H         4.799705        -2.186998        -0.407686
 H         3.785534        -3.169317         0.872485
 H         0.274799         0.560258        -1.575004
 H        -0.228966        -0.785735        -0.625671
 H        -0.395458         0.943945         0.034725
 H         2.394259         1.998806        -0.747567
 H         1.489348         2.123152         0.843566
 H         4.514391        -0.238247         1.674153
 H         1.577586        -1.168238         1.914290
