19
Iteration:  1589charge 0 multiplicity 1
 C         3.955625        -2.510466        -0.080067
 C         3.156439        -1.169652         0.160714
 O         2.131179        -0.861775        -0.854289
 C         1.528042         0.068743         0.135569
 C        -0.004765         0.269124         0.024139
 C         2.187276         1.450180        -0.156846
 O         3.509467         1.334210         0.290051
 C         3.708701         0.094933         0.825015
 C         2.358124        -0.589427         1.282008
 H         3.807243        -3.444699         0.437089
 H         3.729107        -2.619704        -1.120158
 H         5.040956        -2.364741        -0.282234
 H        -0.032135         1.034578        -0.724514
 H        -0.557303        -0.618312        -0.294907
 H        -0.484552         0.675407         0.892424
 H         2.266250         1.748680        -1.198710
 H         1.616200         2.194857         0.483467
 H         4.620546         0.050632         1.364017
 H         2.108907        -0.988551         2.299018
