19
Iteration:  1710
 C         3.668974        -2.529028        -0.049712
 C         3.224639        -1.129938         0.062021
 O         2.247537        -0.732622        -0.926378
 C         1.523291         0.069814         0.125831
 C         0.056796         0.095425        -0.187318
 C         2.126889         1.454670         0.068172
 O         3.575642         1.402066         0.345283
 C         3.740077         0.032090         0.895319
 C         2.406915        -0.545067         1.236957
 H         4.256821        -2.534620        -0.959458
 H         4.428171        -2.878584         0.715454
 H         2.792411        -3.261091        -0.110870
 H        -0.255873        -0.689885        -0.887597
 H        -0.346382        -0.065390         0.850061
 H        -0.261242         1.078650        -0.521054
 H         1.982343         1.842507        -0.961505
 H         1.463831         1.978837         0.865891
 H         4.752896        -0.060446         1.428792
 H         2.095224        -0.897282         2.171204
