19
Iteration:  1852charge 0 multiplicity 1
 C         3.610716        -2.572655        -0.102972
 C         3.240579        -1.171728         0.090930
 O         2.331568        -0.542927        -1.040609
 C         1.621892         0.107923         0.025649
 C         0.131130        -0.022038        -0.217037
 C         2.113399         1.574229         0.242522
 O         3.555588         1.317166         0.360708
 C         3.655902         0.011930         0.979903
 C         2.334322        -0.610474         1.231179
 H         3.729992        -2.999494         0.876562
 H         2.686926        -3.056836        -0.490073
 H         4.570403        -2.636731        -0.646018
 H        -0.323848        -0.871193         0.372017
 H        -0.426198         0.951649         0.014183
 H        -0.008861        -0.230409        -1.297673
 H         2.138624         2.153309        -0.672700
 H         1.685729         2.124035         1.098668
 H         4.543252        -0.080004         1.586615
 H         1.769053        -0.946722         2.139157
