19
Iteration:  3969
 C         3.767899        -2.553465         0.185129
 C         3.036924        -1.193463         0.202372
 O         2.334454        -0.742103        -0.982749
 C         1.631949         0.224020        -0.131096
 C         0.157241         0.214967        -0.460304
 C         2.386739         1.602185        -0.085994
 O         3.602719         1.188676         0.545314
 C         3.505911        -0.086116         1.128142
 C         2.076258        -0.507806         1.175504
 H         3.251770        -3.247210        -0.405198
 H         4.712196        -2.552821        -0.434669
 H         3.958459        -2.769158         1.203220
 H        -0.122527        -0.742277        -0.802068
 H        -0.528381         0.391288         0.418902
 H        -0.095103         0.975185        -1.249937
 H         2.641921         1.893611        -1.108694
 H         1.823657         2.365386         0.512262
 H         4.199696        -0.354570         1.887813
 H         1.457495        -0.916122         1.927589
