19
Iteration:  4000charge 0 multiplicity 1
 C         3.731218        -2.561200        -0.028399
 C         3.072006        -1.212757         0.336063
 O         2.447038        -0.739493        -0.859434
 C         1.565037         0.161823        -0.083638
 C         0.114753         0.255585        -0.577575
 C         2.372091         1.502388        -0.082638
 O         3.632526         1.271627         0.528820
 C         3.529848        -0.037753         1.135644
 C         2.044083        -0.502606         1.300533
 H         2.997401        -3.414637        -0.209105
 H         4.348245        -2.318315        -0.889442
 H         4.442151        -2.960378         0.761911
 H        -0.540059        -0.570605        -0.367669
 H        -0.419872         1.176924        -0.127921
 H         0.225473         0.413046        -1.702385
 H         2.383487         1.703919        -1.140006
 H         1.714765         2.350185         0.285291
 H         4.099278        -0.482524         1.886054
 H         1.383488        -1.082303         1.920882
