19
Iteration:  2818
 C         3.650690        -2.539926        -0.015566
 C         3.056325        -1.143971         0.136786
 O         2.477284        -0.410997        -1.016155
 C         1.590428         0.232659        -0.018279
 C         0.166077        -0.098566        -0.502617
 C         2.323322         1.573294         0.131665
 O         3.640390         1.186855         0.557098
 C         3.510672        -0.136045         1.143122
 C         2.071105        -0.540909         1.191577
 H         2.928126        -2.999391        -0.695730
 H         4.522948        -2.387905        -0.561336
 H         3.819430        -3.120840         0.892530
 H        -0.119115        -1.125969        -0.167024
 H        -0.612611         0.596501        -0.241385
 H         0.224287         0.073243        -1.651043
 H         2.483604         1.964660        -0.832637
 H         1.752945         2.219197         0.884244
 H         4.197034        -0.344415         1.964019
 H         1.552713        -0.842880         2.070034
