19
Iteration:   654
 C         4.001616        -2.398842         0.006995
 C         3.060080        -1.248110         0.140208
 O         1.972115        -0.946660        -0.794234
 C         1.502053         0.030086         0.198383
 C         0.008185         0.306244         0.226410
 C         2.211759         1.363980        -0.269202
 O         3.559587         1.395494         0.084891
 C         3.762361         0.155639         0.649893
 C         2.471963        -0.576018         1.344211
 H         4.330843        -2.794507         1.039049
 H         3.488935        -3.208170        -0.451908
 H         4.903596        -2.093411        -0.583344
 H        -0.243204         1.088319        -0.480201
 H        -0.749758        -0.345838        -0.196498
 H        -0.110473         0.559404         1.298483
 H         1.971176         1.429244        -1.370253
 H         1.672391         2.107164         0.297248
 H         4.834518         0.083338         1.044927
 H         2.214401        -1.015651         2.293832
