19
Iteration:  3763
 C         3.705490        -2.638634         0.061533
 C         3.096145        -1.240466         0.183555
 O         2.420848        -0.684591        -0.987265
 C         1.555746         0.215233        -0.011767
 C         0.123487         0.211752        -0.491045
 C         2.275925         1.538355        -0.017054
 O         3.635637         1.273179         0.554479
 C         3.520677        -0.015732         1.146847
 C         2.145913        -0.559477         1.187921
 H         3.110156        -3.250031        -0.592559
 H         4.723375        -2.642136        -0.533838
 H         3.720525        -3.155980         1.012473
 H        -0.600205         0.709691         0.114852
 H        -0.068421         0.636395        -1.541118
 H        -0.089320        -0.885570        -0.599300
 H         2.512442         2.051605        -0.987298
 H         2.000480         2.477083         0.510363
 H         4.320239        -0.032495         1.924315
 H         1.438767        -0.863878         2.016578
