19
Iteration:  1683charge 0 multiplicity 1
 C         3.630856        -2.627683        -0.002930
 C         3.223587        -1.202853         0.061749
 O         2.322416        -0.610569        -0.897721
 C         1.541436         0.175310         0.127287
 C         0.051443        -0.048136        -0.103282
 C         2.116346         1.624945         0.110497
 O         3.566905         1.348294         0.226947
 C         3.736314         0.036388         0.868777
 C         2.397681        -0.581387         1.153471
 H         4.723563        -2.571790        -0.297698
 H         3.485273        -3.129685         0.959950
 H         2.989586        -3.116599        -0.740105
 H        -0.024005        -0.705146        -0.992074
 H        -0.432152        -0.477706         0.791954
 H        -0.460821         0.923696        -0.380092
 H         1.905661         2.273650        -0.745283
 H         1.617968         1.996467         0.995662
 H         4.602812         0.023013         1.476284
 H         2.045275        -0.936453         2.179641
