19
Iteration:  3465
 C         3.712406        -2.516679        -0.051248
 C         3.129173        -1.219093         0.242964
 O         2.566555        -0.700889        -0.919495
 C         1.497615         0.188165        -0.150796
 C        -0.007743         0.267355        -0.460060
 C         2.404892         1.462623        -0.098833
 O         3.597637         1.276018         0.695941
 C         3.490233        -0.061951         1.207104
 C         2.065364        -0.609663         1.111897
 H         3.022796        -3.303821        -0.035593
 H         4.208583        -2.377526        -1.004726
 H         4.549570        -2.795118         0.629483
 H        -0.205904         1.165132        -1.128221
 H        -0.217367        -0.639983        -1.064259
 H        -0.699219         0.322078         0.386122
 H         2.706488         1.716200        -1.067784
 H         1.894682         2.341782         0.331210
 H         4.188629        -0.113623         2.049387
 H         1.476397        -1.053560         1.993455
