19
Iteration:  2215
 C         3.659801        -2.541843        -0.199732
 C         3.150313        -1.155179         0.059406
 O         2.606989        -0.358058        -1.078806
 C         1.618798         0.204117        -0.064449
 C         0.130746        -0.015232        -0.439501
 C         2.153372         1.605090         0.309439
 O         3.522782         1.235620         0.769647
 C         3.588852        -0.147538         1.155740
 C         2.134944        -0.728350         1.003406
 H         4.188764        -2.517986        -1.178703
 H         4.408852        -2.885177         0.534465
 H         2.821316        -3.248099        -0.187639
 H        -0.310534         0.795518        -1.024726
 H        -0.250840        -0.967346        -0.852673
 H        -0.343183         0.123989         0.562798
 H         2.293291         2.373951        -0.419594
 H         1.459717         1.974837         1.079552
 H         4.065420        -0.414162         2.036297
 H         1.411773        -1.322601         1.620715
