19
Iteration:  1762
 C         3.950417        -2.339347        -0.208441
 C         3.094774        -1.207576         0.171269
 O         2.253795        -0.659742        -0.940061
 C         1.518922         0.151916        -0.021167
 C        -0.029430         0.107074         0.065750
 C         2.278791         1.494381        -0.145889
 O         3.661049         1.181284         0.452192
 C         3.563376        -0.083406         0.977420
 C         2.178171        -0.523323         1.185851
 H         3.687316        -3.062909        -1.002368
 H         4.956287        -2.093056        -0.432024
 H         4.011864        -2.980900         0.710274
 H        -0.235645        -0.926787         0.450073
 H        -0.500594         0.865721         0.780702
 H        -0.388339         0.197989        -0.990107
 H         2.532272         1.808192        -1.139011
 H         1.713803         2.201552         0.382938
 H         4.291111        -0.055346         1.826219
 H         1.679686        -0.902383         2.031523
