19
Iteration:  3007
 C         3.554306        -2.575266         0.166642
 C         3.043380        -1.210541         0.080416
 O         2.458643        -0.606290        -1.077615
 C         1.660193         0.185940        -0.097304
 C         0.203326         0.079246        -0.511875
 C         2.317857         1.595918         0.114750
 O         3.580113         1.318085         0.659738
 C         3.518691        -0.057838         1.123680
 C         2.154837        -0.575412         1.079498
 H         2.967701        -3.272258        -0.373781
 H         4.569488        -2.556191        -0.313116
 H         3.620277        -2.917694         1.167684
 H         0.051883         0.199785        -1.579589
 H        -0.039554        -1.047409        -0.331577
 H        -0.405031         0.666075         0.174464
 H         2.426841         2.064567        -0.827955
 H         1.766986         2.146219         0.869477
 H         4.428991        -0.312346         1.610170
 H         1.613850        -1.059784         1.933481
