19
Iteration:  3184
 C         3.571933        -2.555310         0.022819
 C         3.095217        -1.163858         0.219627
 O         2.569718        -0.626292        -1.032194
 C         1.630583         0.181539        -0.150647
 C         0.181274         0.073410        -0.483258
 C         2.250321         1.524925         0.088984
 O         3.519732         1.307062         0.665141
 C         3.589804        -0.046336         1.121629
 C         2.100405        -0.592326         1.110282
 H         2.884247        -3.013255        -0.696868
 H         4.674649        -2.585147        -0.413265
 H         3.555969        -3.180701         0.977683
 H         0.048418         0.155173        -1.619976
 H        -0.201545        -0.877077        -0.062657
 H        -0.331710         0.981060        -0.079384
 H         2.430835         2.094251        -0.889222
 H         1.866369         2.278544         0.757434
 H         4.221403        -0.233935         2.018436
 H         1.441953        -0.977123         1.844593
