19
Iteration:  4554charge 0 multiplicity 1
 C         3.886680        -2.451767        -0.128096
 C         3.098483        -1.201968         0.288162
 O         2.385569        -0.731868        -0.898308
 C         1.564737         0.216082        -0.130396
 C         0.125085         0.299780        -0.556972
 C         2.372521         1.510173         0.002290
 O         3.621394         1.247223         0.635290
 C         3.423951        -0.165401         1.207637
 C         1.990785        -0.634047         1.225005
 H         3.274135        -2.753885        -1.014261
 H         4.712338        -2.238349        -0.722886
 H         4.103524        -3.182811         0.625667
 H         0.088825        -0.262720        -1.465773
 H        -0.466890        -0.147974         0.302257
 H        -0.253153         1.261846        -0.824794
 H         2.602699         1.772555        -1.024811
 H         1.735435         2.281600         0.449756
 H         4.199487        -0.464239         1.968223
 H         1.394683        -0.795570         2.151831
