19
Iteration:   109
 C         3.736604        -2.488651         0.110500
 C         3.167271        -1.106378         0.067150
 O         2.075086        -0.793319        -0.912883
 C         1.563981         0.120839         0.087210
 C         0.002456        -0.025195         0.112518
 C         2.166925         1.499351        -0.099011
 O         3.607792         1.283178         0.131251
 C         3.762244         0.107686         0.783651
 C         2.466819        -0.433108         1.265874
 H         4.258514        -2.570729         1.070813
 H         2.977258        -3.241406        -0.005666
 H         4.497113        -2.728379        -0.679763
 H        -0.367285         0.870111        -0.383747
 H        -0.244940        -0.884921        -0.522765
 H        -0.342788        -0.246513         1.115251
 H         2.093326         1.940483        -1.108478
 H         1.897775         2.232344         0.675136
 H         4.801986         0.011935         1.244153
 H         2.149654        -0.719549         2.264566
