19
Iteration:  1303charge 0 multiplicity 1
 C         3.722108        -2.615597         0.293314
 C         3.052058        -1.107575         0.183877
 O         2.290676        -0.715544        -0.995822
 C         1.497264         0.176292         0.065815
 C         0.092353        -0.085462         0.363713
 C         2.188607         1.497256        -0.184510
 O         3.563103         1.283322        -0.172727
 C         3.717105         0.153512         0.720125
 C         2.409246        -0.415821         1.263800
 H         3.754045        -2.696621         1.440170
 H         3.131934        -3.344937        -0.232430
 H         4.743002        -2.660621        -0.138531
 H        -0.621699         0.664804         0.067893
 H        -0.206145        -0.994256        -0.115963
 H        -0.006668        -0.198681         1.418654
 H         1.972940         1.976901        -1.114573
 H         1.970998         2.275690         0.534484
 H         4.670472         0.041282         1.297290
 H         1.833927        -0.779782         2.146994
