19
Iteration:  1484charge 0 multiplicity 1
 C         3.538259        -2.624460         0.032310
 C         3.167958        -1.216946         0.191380
 O         2.242483        -0.763180        -0.855965
 C         1.591139         0.063490         0.118804
 C         0.112648        -0.069802         0.066922
 C         2.142437         1.479061        -0.098258
 O         3.507929         1.432358         0.093355
 C         3.795818         0.202186         0.753820
 C         2.500051        -0.365947         1.276120
 H         3.750781        -2.911449        -0.965844
 H         4.365133        -2.986608         0.717790
 H         2.608603        -3.085644         0.374364
 H        -0.249366        -0.229669         1.119079
 H        -0.213787         0.924905        -0.352274
 H        -0.159654        -0.928881        -0.549827
 H         1.844683         1.801046        -1.146822
 H         1.592433         2.184378         0.555231
 H         4.771687         0.144779         1.164639
 H         2.552478        -0.629690         2.293853
