19
Iteration:  3190
 C         3.573102        -2.542383         0.011144
 C         3.106487        -1.184914         0.205078
 O         2.482674        -0.599098        -1.012926
 C         1.624241         0.176676        -0.146414
 C         0.190666         0.076280        -0.530965
 C         2.262557         1.523732         0.073580
 O         3.570375         1.328849         0.684016
 C         3.570461        -0.042941         1.113359
 C         2.140699        -0.621384         1.170604
 H         2.949411        -3.179593        -0.652757
 H         4.573732        -2.435041        -0.266135
 H         3.566186        -3.142479         0.878543
 H         0.217353         0.039535        -1.587782
 H        -0.299461        -0.876958        -0.266086
 H        -0.461117         0.891426        -0.246421
 H         2.619791         1.943795        -0.841106
 H         1.664944         2.202747         0.771979
 H         4.329389        -0.147165         1.887835
 H         1.428186        -0.991325         1.947060
