19
Iteration:  4246
 C         3.541714        -2.628775         0.046984
 C         3.139240        -1.136595         0.220079
 O         2.496883        -0.634514        -0.937323
 C         1.566558         0.243875        -0.022419
 C         0.152651         0.043099        -0.547004
 C         2.364544         1.630546        -0.013194
 O         3.629782         1.276701         0.548828
 C         3.578264         0.030630         1.123408
 C         2.032738        -0.590606         1.187558
 H         2.678068        -3.315413         0.145348
 H         3.825833        -2.811290        -1.008849
 H         4.369849        -3.000811         0.738832
 H        -0.590328        -0.005985         0.347954
 H        -0.127433         0.629425        -1.367735
 H         0.003624        -1.022158        -0.868619
 H         2.516379         1.880495        -1.074113
 H         1.968262         2.344511         0.642243
 H         4.268793        -0.206938         1.921008
 H         1.609103        -1.264884         1.914865
