19
Iteration:  4510charge 0 multiplicity 1
 C         3.801367        -2.423789         0.005215
 C         2.962704        -1.250946         0.182921
 O         2.468200        -0.662897        -0.983653
 C         1.579268         0.271849        -0.054102
 C         0.141145         0.224994        -0.524023
 C         2.365935         1.564583        -0.017545
 O         3.626462         1.180955         0.641568
 C         3.448820        -0.098983         1.139286
 C         2.056609        -0.677661         1.194298
 H         3.239244        -3.137693        -0.687094
 H         4.681388        -2.360520        -0.560626
 H         3.984790        -2.765839         1.033432
 H         0.000387         0.553315        -1.548761
 H        -0.100492        -0.857348        -0.403889
 H        -0.532415         0.635762         0.212441
 H         2.498660         1.891749        -1.047950
 H         1.853780         2.380129         0.573697
 H         4.225839        -0.406400         1.845824
 H         1.415622        -0.948852         2.063725
