19
Iteration:  2221charge 0 multiplicity 1
 C         3.688422        -2.562217        -0.204571
 C         3.118226        -1.126846         0.071070
 O         2.604240        -0.353997        -1.065015
 C         1.653192         0.251262        -0.107263
 C         0.118476        -0.001253        -0.437183
 C         2.170145         1.547755         0.373050
 O         3.518594         1.237974         0.721675
 C         3.498542        -0.186336         1.170955
 C         2.193333        -0.695355         0.987293
 H         4.054468        -2.569929        -1.229781
 H         4.536584        -2.775006         0.505017
 H         2.838340        -3.281927        -0.075148
 H        -0.307750         0.650091        -1.235121
 H        -0.104717        -1.057030        -0.654843
 H        -0.497794         0.222346         0.449976
 H         2.095386         2.351122        -0.427007
 H         1.587984         1.999435         1.234770
 H         3.999843        -0.554214         2.132036
 H         1.610505        -1.244651         1.667095
