19
Iteration:  4513
 C         3.838389        -2.417442        -0.013452
 C         2.949349        -1.260572         0.195949
 O         2.448578        -0.659665        -0.971372
 C         1.607681         0.292750        -0.060757
 C         0.139279         0.222010        -0.529522
 C         2.354884         1.534897        -0.019776
 O         3.631198         1.182205         0.655375
 C         3.445924        -0.122335         1.139466
 C         2.039512        -0.634899         1.192490
 H         3.146613        -3.118991        -0.663762
 H         4.792817        -2.278781        -0.535272
 H         4.008961        -2.927756         0.915681
 H        -0.039531         0.366180        -1.562178
 H        -0.184403        -0.859612        -0.394405
 H        -0.494646         0.724518         0.164195
 H         2.494102         1.889789        -1.076095
 H         1.852124         2.391355         0.545333
 H         4.247540        -0.465166         1.837883
 H         1.451072        -0.860315         2.093304
