19
Iteration:   217charge 0 multiplicity 1
 C         4.010073        -2.509425        -0.136020
 C         3.071334        -1.252347         0.191501
 O         2.097507        -0.898523        -0.760518
 C         1.502434         0.164690         0.267537
 C         0.024647         0.195725         0.159830
 C         2.207273         1.477784        -0.216722
 O         3.594959         1.335802         0.098298
 C         3.681437         0.082753         0.732366
 C         2.335002        -0.481886         1.330498
 H         4.944741        -2.586764         0.479864
 H         3.462138        -3.447516        -0.054439
 H         4.324994        -2.276406        -1.216872
 H        -0.257227         0.006616        -0.948980
 H        -0.469999        -0.674037         0.666325
 H        -0.586843         1.133449         0.334768
 H         2.032256         1.487524        -1.323567
 H         1.842484         2.466284         0.187597
 H         4.679683        -0.160247         1.228429
 H         2.002533        -0.483669         2.407795
