19
Iteration:   652charge 0 multiplicity 1
 C         4.022957        -2.403213         0.017427
 C         3.061237        -1.234787         0.120639
 O         1.974472        -0.964159        -0.802929
 C         1.503969         0.049968         0.196807
 C        -0.002128         0.323002         0.232861
 C         2.209269         1.355235        -0.265859
 O         3.558114         1.378962         0.083846
 C         3.763045         0.159548         0.652551
 C         2.465446        -0.581087         1.363730
 H         4.369493        -2.792984         1.012730
 H         3.530273        -3.173837        -0.496916
 H         4.910725        -2.131925        -0.637989
 H        -0.253172         1.113647        -0.495193
 H        -0.828028        -0.358496        -0.166745
 H        -0.089506         0.568150         1.309365
 H         2.001901         1.432730        -1.378571
 H         1.613279         2.175747         0.305316
 H         4.841477         0.077643         1.058221
 H         2.133094        -0.985858         2.282410
