19
Iteration:  4501
 C         3.708240        -2.489918         0.065760
 C         3.052405        -1.182592         0.138749
 O         2.475909        -0.633288        -1.014195
 C         1.549592         0.191611        -0.045612
 C         0.144943         0.213631        -0.490009
 C         2.382652         1.593935         0.014335
 O         3.599644         1.207491         0.591034
 C         3.458996        -0.095263         1.146540
 C         2.070027        -0.705962         1.171073
 H         3.220492        -3.437225        -0.408511
 H         4.619580        -2.234071        -0.462856
 H         4.017773        -2.713407         1.058224
 H         0.065792         0.882507        -1.280294
 H        -0.073019        -0.875418        -0.786415
 H        -0.519921         0.591652         0.231921
 H         2.620687         1.974475        -1.004847
 H         1.859169         2.379513         0.670555
 H         4.206927        -0.234511         1.963100
 H         1.421475        -1.232254         1.895676
