19
Iteration:  1410
 C         3.937665        -2.440905         0.069795
 C         3.079954        -1.261919         0.210487
 O         2.119088        -0.856415        -0.833436
 C         1.497808         0.181450         0.066041
 C        -0.001463         0.114592         0.202878
 C         2.252977         1.522079        -0.193435
 O         3.588904         1.213853        -0.032705
 C         3.639846         0.072868         0.764073
 C         2.364107        -0.433301         1.328358
 H         4.989658        -2.025641        -0.009972
 H         3.979636        -3.163929         0.896871
 H         3.741678        -2.757454        -0.941441
 H        -0.295835        -0.932459        -0.088667
 H        -0.090433         0.255824         1.304323
 H        -0.551390         0.839908        -0.426042
 H         2.155085         1.703061        -1.289945
 H         1.957537         2.365805         0.505591
 H         4.593999         0.096708         1.329840
 H         1.978909        -0.573568         2.296798
