19
Iteration:  2007charge 0 multiplicity 1
 C         3.745511        -2.534042        -0.121108
 C         3.170622        -1.132904         0.099793
 O         2.444000        -0.527928        -0.957536
 C         1.589591         0.230854        -0.051565
 C         0.085456        -0.026472        -0.223857
 C         2.216806         1.610046         0.131082
 O         3.625815         1.227521         0.485822
 C         3.505568        -0.102475         1.024637
 C         2.107525        -0.607943         1.188935
 H         3.215159        -2.789080        -1.028962
 H         4.792248        -2.660252        -0.453101
 H         3.574136        -3.293880         0.616643
 H         0.136605        -0.909206        -0.898889
 H        -0.430623        -0.245616         0.723999
 H        -0.387225         0.790971        -0.846438
 H         2.291158         2.203542        -0.798269
 H         1.756774         2.351560         0.891723
 H         4.304833        -0.318334         1.809149
 H         1.630850        -0.965676         2.070375
