19
Iteration:  1257
 C         3.732580        -2.543861         0.166560
 C         3.109173        -1.158573         0.220198
 O         2.048553        -0.964515        -0.807589
 C         1.647613         0.071739         0.192184
 C        -0.011399         0.028527         0.120495
 C         2.139214         1.467738        -0.231389
 O         3.601947         1.426625        -0.053003
 C         3.806658         0.193772         0.706163
 C         2.565686        -0.370575         1.310841
 H         3.846781        -2.932113         1.199702
 H         2.924035        -3.057372        -0.485744
 H         4.609629        -2.545407        -0.481573
 H        -0.450591         0.940200        -0.350612
 H        -0.278355        -0.823197        -0.578122
 H        -0.513425        -0.101166         1.082332
 H         1.749726         1.752249        -1.234968
 H         1.660514         2.146692         0.441975
 H         4.841590         0.081372         0.985433
 H         2.376289        -0.526876         2.471683
