19
Iteration:  3092charge 0 multiplicity 1
 C         3.861247        -2.533256        -0.088573
 C         3.085611        -1.252429         0.282754
 O         2.369487        -0.837529        -0.893165
 C         1.555233         0.121108        -0.068600
 C         0.142303         0.393906        -0.680285
 C         2.316662         1.574538        -0.047392
 O         3.573502         1.305756         0.690833
 C         3.524893        -0.076871         1.172884
 C         2.052483        -0.595487         1.236139
 H         3.174786        -3.492469        -0.229184
 H         4.571137        -2.364246        -0.967496
 H         4.519021        -2.836537         0.748454
 H         0.003132         1.351498        -1.096577
 H         0.075523        -0.433620        -1.406522
 H        -0.721741         0.205992        -0.076679
 H         2.352340         2.020789        -1.018778
 H         1.649032         2.242105         0.598250
 H         4.315768        -0.227864         1.919882
 H         1.559690        -0.946069         2.210554
