19
Iteration:   593charge 0 multiplicity 1
 C         3.773005        -2.401060        -0.055527
 C         3.053686        -1.126985         0.178795
 O         2.172282        -0.815389        -0.824745
 C         1.558342         0.192777         0.133383
 C         0.045700        -0.031107         0.309103
 C         2.210829         1.457450        -0.264393
 O         3.596317         1.219840         0.013178
 C         3.730726         0.083655         0.798577
 C         2.390569        -0.404917         1.286150
 H         4.607255        -2.526342         0.600283
 H         3.079992        -3.300689         0.150412
 H         4.117376        -2.473752        -1.072523
 H        -0.316623         0.029794        -0.728299
 H        -0.099022        -1.018033         0.773022
 H        -0.530691         0.719679         0.854245
 H         2.133456         1.766008        -1.294907
 H         1.862687         2.341425         0.407025
 H         4.591163         0.067719         1.421152
 H         2.146972        -0.721944         2.340752
