19
Iteration:   488
 C         3.832460        -2.534516         0.079025
 C         3.067110        -1.193384         0.115865
 O         2.107084        -0.750213        -0.884681
 C         1.598058         0.177917         0.166334
 C         0.103304         0.001570         0.284539
 C         2.184516         1.503454        -0.265898
 O         3.620263         1.308890         0.030774
 C         3.681217         0.019136         0.725943
 C         2.343755        -0.382950         1.300314
 H         4.321422        -2.622298         1.110944
 H         3.185849        -3.408331        -0.210940
 H         4.695922        -2.544888        -0.740800
 H        -0.534624         0.461650        -0.488901
 H        -0.092949        -1.096911         0.167906
 H        -0.280754         0.217964         1.314780
 H         1.953587         1.857201        -1.312374
 H         1.942106         2.290198         0.507753
 H         4.584905        -0.077803         1.209446
 H         1.905135        -0.512966         2.326728
