19
Iteration:  2263
 C         3.795970        -2.450023        -0.302105
 C         3.083827        -1.228800         0.063386
 O         2.430783        -0.469037        -0.978122
 C         1.519793         0.197454         0.020802
 C         0.169841         0.204631        -0.634977
 C         2.190034         1.512053         0.366937
 O         3.559992         1.213005         0.782543
 C         3.530508        -0.172437         1.157753
 C         2.162782        -0.743980         1.132155
 H         3.824848        -2.536552        -1.362764
 H         4.825883        -2.150442        -0.171692
 H         3.544495        -3.378539         0.167845
 H         0.262285        -0.114885        -1.724526
 H        -0.265077        -0.732557        -0.155570
 H        -0.597647         0.983281        -0.525666
 H         2.362004         2.232934        -0.513728
 H         1.525902         2.121606         0.962678
 H         4.395342        -0.227343         1.946092
 H         1.883059        -1.329786         1.987506
