19
Iteration:  2777charge 0 multiplicity 1
 C         3.590781        -2.634173        -0.036280
 C         3.171911        -1.187076         0.169084
 O         2.554154        -0.523406        -1.083634
 C         1.592670         0.145620        -0.104927
 C         0.223821         0.125070        -0.433983
 C         2.162967         1.510915         0.132244
 O         3.534466         1.306656         0.684880
 C         3.482567        -0.030046         1.138585
 C         2.196974        -0.583286         1.085469
 H         2.716274        -3.228769        -0.274894
 H         4.294686        -2.816508        -0.884241
 H         4.199195        -3.042130         0.823251
 H        -0.402715        -0.268459         0.394444
 H        -0.164457         1.063921        -0.741174
 H         0.152663        -0.642427        -1.274754
 H         2.113107         2.195420        -0.711874
 H         1.716116         2.010618         1.019088
 H         4.201040        -0.365794         1.855586
 H         1.752199        -0.996829         1.887170
