19
Iteration:  2699charge 0 multiplicity 1
 C         3.946128        -2.313623        -0.155201
 C         3.018904        -1.305849         0.203075
 O         2.537062        -0.630236        -0.992436
 C         1.487675         0.204275        -0.129529
 C         0.067553         0.246779        -0.401995
 C         2.338153         1.554554         0.044571
 O         3.659758         1.134321         0.641784
 C         3.367533        -0.185502         1.203093
 C         1.980304        -0.642577         1.155820
 H         3.501489        -3.117581        -0.832765
 H         4.607497        -1.663896        -0.768395
 H         4.613989        -2.750331         0.639290
 H        -0.333351         1.268069        -0.449575
 H        -0.044762        -0.397764        -1.262412
 H        -0.529748        -0.415998         0.363529
 H         2.676772         2.019150        -0.826049
 H         1.834329         2.159631         0.813081
 H         3.943796        -0.171567         2.215546
 H         1.157823        -1.104079         1.798578
