19
Iteration:  1694
 C         3.664292        -2.590544        -0.043928
 C         3.209630        -1.137502         0.115369
 O         2.298109        -0.687493        -0.946689
 C         1.578152         0.108573         0.090400
 C         0.005895         0.006006        -0.113035
 C         2.141279         1.565055         0.108656
 O         3.539750         1.371799         0.293167
 C         3.713884         0.103384         0.820276
 C         2.446057        -0.587731         1.243164
 H         4.550922        -3.033150        -0.626682
 H         3.775086        -3.014211         0.957834
 H         2.831956        -3.142266        -0.520452
 H        -0.093374        -0.701778        -0.964855
 H        -0.773157        -0.349420         0.583636
 H        -0.326388         1.028004        -0.484775
 H         1.945480         2.233490        -0.731332
 H         2.027359         2.173286         0.969481
 H         4.483918        -0.062698         1.492343
 H         2.115088        -1.084148         2.235635
