19
Iteration:  4021charge 0 multiplicity 1
 C         3.724541        -2.591505         0.009339
 C         3.084139        -1.257000         0.268859
 O         2.445572        -0.655819        -0.881313
 C         1.574315         0.211008        -0.060113
 C         0.161852         0.264356        -0.596693
 C         2.329365         1.554318        -0.084063
 O         3.571841         1.178950         0.552904
 C         3.532924        -0.024046         1.161542
 C         2.083494        -0.590112         1.222818
 H         2.946110        -3.466660         0.083057
 H         4.057731        -2.662077        -1.004213
 H         4.584627        -2.787753         0.729754
 H        -0.446941        -0.347360         0.061992
 H        -0.407161         1.218740        -0.586163
 H         0.195677        -0.172185        -1.636249
 H         2.399805         1.922692        -1.115186
 H         1.708339         2.337798         0.453565
 H         4.106367        -0.090985         2.085476
 H         1.742389        -0.535688         2.243622
