19
Iteration:  1258charge 0 multiplicity 1
 C         3.732308        -2.544733         0.170162
 C         3.108796        -1.166740         0.214894
 O         2.053230        -0.951817        -0.811247
 C         1.646551         0.072967         0.185788
 C        -0.017495         0.026880         0.124713
 C         2.138913         1.463810        -0.229757
 O         3.602601         1.425444        -0.057320
 C         3.805923         0.193857         0.704582
 C         2.568257        -0.371059         1.316312
 H         3.814786        -2.945390         1.218921
 H         2.942065        -3.035384        -0.449473
 H         4.612371        -2.576435        -0.462686
 H        -0.452146         0.913601        -0.349603
 H        -0.294109        -0.801271        -0.567244
 H        -0.467886        -0.116592         1.080034
 H         1.757745         1.754966        -1.220211
 H         1.644366         2.134718         0.472442
 H         4.860770         0.126016         0.978418
 H         2.338342        -0.538425         2.456540
