19
Iteration:  3209charge 0 multiplicity 1
 C         3.750881        -2.580254        -0.010231
 C         3.079016        -1.159673         0.107835
 O         2.325232        -0.634789        -0.933079
 C         1.524135         0.237233         0.055550
 C         0.185988         0.069273        -0.723682
 C         2.301480         1.573265         0.039888
 O         3.592510         1.297631         0.699542
 C         3.557040        -0.079461         1.120653
 C         2.165308        -0.579719         1.232776
 H         2.982718        -3.174913        -0.556222
 H         4.742175        -2.693072        -0.404860
 H         3.685343        -3.088868         0.984755
 H         0.415705         0.203640        -1.848763
 H        -0.177559        -0.910064        -0.451301
 H        -0.538213         0.955466        -0.426337
 H         2.382988         1.980257        -1.063639
 H         2.100216         2.447350         0.711273
 H         4.231820        -0.452233         1.846971
 H         1.771390        -1.039703         2.196331
