19
Iteration:   828
 C         3.986849        -2.304195        -0.111949
 C         3.067003        -1.214428         0.245713
 O         2.108823        -0.831379        -0.744452
 C         1.511432         0.162049         0.081587
 C         0.030795         0.174362         0.315200
 C         2.232136         1.416385        -0.305371
 O         3.588403         1.095331        -0.048341
 C         3.651306        -0.005386         0.817749
 C         2.332907        -0.388552         1.290801
 H         4.563802        -2.593102         0.829442
 H         3.610835        -3.220710        -0.449513
 H         4.741063        -1.848021        -0.762477
 H        -0.553793         0.886139        -0.255844
 H        -0.283925        -0.858985         0.416670
 H        -0.222650         0.574448         1.361491
 H         2.120871         1.532279        -1.420338
 H         1.881092         2.299581         0.225257
 H         4.389533         0.066389         1.513559
 H         1.887989        -0.563101         2.318822
