19
Iteration:  2686
 C         4.012659        -2.365908        -0.191485
 C         3.047637        -1.218979         0.253849
 O         2.486106        -0.535220        -0.924630
 C         1.595379         0.174986        -0.103991
 C         0.015031         0.216915        -0.427078
 C         2.351378         1.477626         0.073664
 O         3.626657         1.108578         0.585886
 C         3.410441        -0.170295         1.249630
 C         1.929624        -0.624529         1.059824
 H         3.499053        -3.052667        -0.895290
 H         4.862429        -1.973007        -0.689045
 H         4.323689        -2.926873         0.656584
 H        -0.285227         1.240196        -0.764767
 H        -0.341275        -0.421412        -1.312931
 H        -0.549777         0.014607         0.505402
 H         2.385766         2.006649        -0.853234
 H         1.829406         2.188525         0.786003
 H         3.912999        -0.511213         2.192636
 H         1.267354        -1.025588         1.941059
