19
Iteration:  4668charge 0 multiplicity 1
 C         3.595217        -2.607808        -0.179955
 C         3.124448        -1.162193         0.176702
 O         2.563550        -0.484724        -0.986841
 C         1.532051         0.222653         0.001842
 C         0.112144         0.062763        -0.617259
 C         2.244295         1.556785         0.055969
 O         3.625914         1.273176         0.692728
 C         3.517186        -0.011035         1.220153
 C         2.164023        -0.717150         1.274420
 H         2.714343        -3.258104        -0.427803
 H         4.043676        -2.553338        -1.211428
 H         4.190956        -3.194459         0.540248
 H        -0.766737        -0.093328         0.055665
 H        -0.158483         0.854182        -1.217944
 H         0.119973        -0.967538        -1.005827
 H         2.587600         1.876747        -0.952042
 H         1.905123         2.379104         0.706381
 H         4.264200        -0.132650         1.981717
 H         1.653557        -1.048303         2.180971
