19
Iteration:   924charge 0 multiplicity 1
 C         3.546505        -2.593044         0.183693
 C         3.226561        -1.117437         0.093208
 O         2.260632        -0.748312        -0.965031
 C         1.614199         0.091903         0.090355
 C        -0.024639        -0.129409         0.238836
 C         2.087485         1.530673        -0.050079
 O         3.581938         1.345737        -0.018603
 C         3.819317         0.101702         0.692286
 C         2.513335        -0.303468         1.224314
 H         4.301228        -2.890112         1.072226
 H         2.651887        -3.128146         0.414470
 H         3.881958        -3.113598        -0.801530
 H        -0.511218        -0.325040        -0.701642
 H        -0.003990        -0.941049         0.984469
 H        -0.642435         0.661764         0.704015
 H         1.859666         2.103918        -0.947384
 H         1.812734         2.212323         0.886239
 H         4.620093         0.149176         1.290909
 H         2.211290        -0.657655         2.249647
