19
Iteration:  4604charge 0 multiplicity 1
 C         3.752042        -2.597997         0.119718
 C         3.150209        -1.209755         0.121825
 O         2.457031        -0.548303        -1.017262
 C         1.578512         0.194603        -0.175060
 C         0.115401         0.208699        -0.495688
 C         2.273539         1.597625         0.162555
 O         3.581420         1.215108         0.720435
 C         3.529268        -0.080387         1.041759
 C         2.083749        -0.688475         1.008551
 H         3.007103        -3.285008        -0.145926
 H         4.416381        -2.797944        -0.767239
 H         4.270600        -2.736248         1.123265
 H        -0.307743        -0.845863        -0.352779
 H        -0.332992         0.939048         0.134036
 H        -0.045671         0.641898        -1.545507
 H         2.329649         2.342852        -0.668907
 H         1.677946         2.058795         1.016857
 H         4.134698        -0.258861         1.906091
 H         1.497274        -1.222237         1.759213
