19
Iteration:   192
 C         3.618074        -2.498682        -0.082246
 C         3.172747        -1.078923         0.136772
 O         2.122167        -0.833227        -0.778149
 C         1.511853         0.085928         0.155311
 C         0.041019        -0.063823         0.074948
 C         2.214705         1.486639        -0.184711
 O         3.557176         1.331716         0.145908
 C         3.839553         0.137659         0.773826
 C         2.534474        -0.373739         1.378647
 H         4.337618        -2.845510         0.615850
 H         2.738453        -3.155441        -0.023975
 H         4.132842        -2.505552        -1.119349
 H        -0.331839        -0.355347        -0.977372
 H        -0.373063        -0.892322         0.691259
 H        -0.575798         0.855276         0.210705
 H         1.962569         1.719743        -1.248158
 H         1.896424         2.345329         0.425659
 H         4.758229         0.006945         1.361742
 H         2.443320        -0.891170         2.259574
