19
Iteration:  4105charge 0 multiplicity 1
 C         3.590643        -2.570312         0.049325
 C         3.038734        -1.166994         0.188522
 O         2.511869        -0.646267        -0.928528
 C         1.632123         0.184944        -0.087983
 C         0.138604         0.187665        -0.548227
 C         2.331602         1.574033        -0.010023
 O         3.565463         1.263937         0.578235
 C         3.532562        -0.076473         1.142695
 C         2.178336        -0.599397         1.163809
 H         2.895450        -3.166781        -0.581125
 H         4.487582        -2.555125        -0.532803
 H         3.853935        -3.049906         1.042560
 H        -0.472444         0.953128         0.044035
 H         0.008559         0.106033        -1.570127
 H        -0.320824        -0.663857        -0.033119
 H         2.429845         1.844861        -1.084050
 H         1.708188         2.215729         0.683374
 H         4.196806        -0.264304         1.946484
 H         1.721001        -1.104090         2.028661
