19
Iteration:  2668charge 0 multiplicity 1
 C         3.935265        -2.431526        -0.139064
 C         3.154570        -1.214795         0.088861
 O         2.479529        -0.570377        -0.997316
 C         1.495766         0.175606        -0.035197
 C         0.125905         0.275306        -0.505246
 C         2.264833         1.543483         0.133930
 O         3.535128         1.152562         0.640239
 C         3.417713        -0.167859         1.154571
 C         2.046434        -0.705499         1.235012
 H         3.390874        -3.023616        -0.933214
 H         4.960527        -2.069345        -0.503443
 H         3.918893        -3.057223         0.813097
 H        -0.104466         1.045181        -1.233343
 H        -0.021867        -0.651861        -0.972980
 H        -0.500868         0.388855         0.434155
 H         2.470363         2.101890        -0.817532
 H         1.830376         2.287430         0.799776
 H         4.150452        -0.411797         1.991314
 H         1.433917        -1.030489         2.059669
