19
Iteration:   598
 C         3.820775        -2.377764        -0.052907
 C         3.070730        -1.171567         0.211735
 O         2.159318        -0.838614        -0.856708
 C         1.562509         0.181116         0.107934
 C         0.044716         0.039932         0.310579
 C         2.190892         1.459358        -0.261560
 O         3.598706         1.223918         0.005137
 C         3.714417         0.078885         0.843368
 C         2.355777        -0.407543         1.312788
 H         4.686166        -2.481153         0.665494
 H         3.225885        -3.252573        -0.075601
 H         4.143971        -2.488806        -1.130758
 H        -0.402488         0.135242        -0.685807
 H        -0.036672        -0.920869         0.834017
 H        -0.476535         0.715405         1.036004
 H         1.981897         1.689360        -1.347408
 H         1.841867         2.318049         0.265848
 H         4.768032        -0.143765         1.247392
 H         2.064533        -0.771608         2.254034
