19
Iteration:  4070
 C         3.623819        -2.632266         0.244481
 C         3.169360        -1.261191         0.052470
 O         2.496518        -0.590549        -1.030046
 C         1.595576         0.208174        -0.176176
 C         0.107347         0.165058        -0.484170
 C         2.320215         1.545405         0.135549
 O         3.629715         1.278663         0.603371
 C         3.481687        -0.101547         1.051210
 C         2.111714        -0.513325         1.075235
 H         2.805135        -3.308373         0.414596
 H         4.246533        -2.983805        -0.668209
 H         4.245133        -2.689799         1.125156
 H        -0.474810         0.420524         0.459242
 H        -0.328528         0.891607        -1.189755
 H        -0.049520        -0.838640        -0.847355
 H         2.301648         2.129664        -0.835026
 H         1.599253         2.221414         0.725724
 H         4.097331        -0.273820         1.957566
 H         1.681565        -0.903687         2.008683
