19
Iteration:  4544charge 0 multiplicity 1
 C         3.926202        -2.468734        -0.219656
 C         3.095921        -1.238891         0.184272
 O         2.388099        -0.788582        -0.919559
 C         1.578706         0.226146        -0.039320
 C         0.091380         0.238617        -0.562830
 C         2.400011         1.543337        -0.020062
 O         3.660215         1.191077         0.671428
 C         3.361967        -0.065616         1.255075
 C         1.975880        -0.517616         1.238888
 H         3.243414        -3.128765        -0.839999
 H         4.883089        -2.229998        -0.541777
 H         3.958005        -3.138647         0.599358
 H        -0.013856        -0.161761        -1.527906
 H        -0.563159        -0.398829         0.122362
 H        -0.295012         1.234870        -0.631947
 H         2.623045         1.906596        -1.036945
 H         1.925497         2.344910         0.605084
 H         4.007787        -0.235489         2.165704
 H         1.349295        -0.651536         2.144150
