19
Iteration:  4787
 C         3.767765        -2.525328        -0.212969
 C         3.162501        -1.172566         0.132887
 O         2.464273        -0.619878        -0.987237
 C         1.582623         0.212662        -0.105300
 C         0.093217         0.156395        -0.548253
 C         2.330531         1.573809         0.163046
 O         3.496508         1.239103         0.762393
 C         3.506947        -0.108362         1.185683
 C         2.144119        -0.639147         1.175638
 H         3.021065        -3.156755        -0.711221
 H         4.472643        -2.424784        -1.051155
 H         4.248891        -3.083838         0.618340
 H        -0.214735         0.390412        -1.594407
 H        -0.340776        -0.825310        -0.385067
 H        -0.471040         0.944057         0.061923
 H         2.572222         2.244462        -0.685246
 H         1.573306         1.992172         0.857507
 H         4.189388        -0.342210         2.060343
 H         1.578190        -1.018169         2.061198
