19
Iteration:  1307charge 0 multiplicity 1
 C         3.708112        -2.613100         0.277185
 C         3.054145        -1.086598         0.174145
 O         2.261780        -0.725469        -0.957795
 C         1.538906         0.158388         0.058735
 C         0.077730        -0.092133         0.355542
 C         2.207014         1.486756        -0.199701
 O         3.575079         1.279536        -0.142732
 C         3.743496         0.162021         0.717213
 C         2.351210        -0.375625         1.243136
 H         3.819594        -2.668147         1.319568
 H         3.144605        -3.435986        -0.141971
 H         4.721212        -2.508658        -0.129243
 H        -0.648464         0.617680        -0.052877
 H        -0.240661        -1.038427        -0.082965
 H         0.107281        -0.211584         1.467310
 H         1.956984         1.945792        -1.175269
 H         1.916474         2.234813         0.644433
 H         4.681477        -0.004758         1.207605
 H         2.030556        -0.871445         2.119507
