19
Iteration:  1504charge 0 multiplicity 1
 C         3.581346        -2.597610         0.039976
 C         3.171709        -1.128014         0.175082
 O         2.247342        -0.759080        -0.837859
 C         1.605702         0.133104         0.116524
 C         0.004699        -0.125470         0.054830
 C         2.139827         1.606243        -0.112503
 O         3.601346         1.350069         0.041649
 C         3.780092         0.151330         0.792472
 C         2.503878        -0.450592         1.311046
 H         3.306525        -2.797379        -0.988766
 H         4.745115        -2.770460         0.053248
 H         2.939449        -3.229001         0.721677
 H        -0.460411         0.149466         1.038523
 H        -0.619697         0.368812        -0.724201
 H        -0.116318        -1.205816         0.077149
 H         1.939867         1.919307        -1.162328
 H         1.678999         2.269423         0.632822
 H         4.637145         0.123630         1.402814
 H         1.979916        -0.750408         2.259683
