19
Iteration:   318charge 0 multiplicity 1
 C         3.441866        -2.553410         0.064501
 C         3.251642        -1.102508         0.165246
 O         2.181111        -0.856445        -0.812178
 C         1.581473         0.135716         0.173293
 C         0.040227        -0.182330         0.127251
 C         2.123324         1.531167        -0.142161
 O         3.600788         1.421794        -0.001137
 C         3.860719         0.228425         0.749773
 C         2.568005        -0.428213         1.239417
 H         3.900118        -2.939892         1.053433
 H         2.398527        -2.984109        -0.150554
 H         4.037162        -2.903302        -0.737173
 H        -0.504088         0.645513        -0.338807
 H        -0.044314        -1.178544        -0.346466
 H        -0.438215        -0.298826         1.161053
 H         1.913944         1.870921        -1.155329
 H         1.682044         2.275809         0.605802
 H         4.827630         0.273174         1.182403
 H         2.364609        -0.751099         2.309062
