19
Iteration:  2831
 C         3.670180        -2.516107        -0.121878
 C         3.022066        -1.189482         0.144447
 O         2.423031        -0.565197        -0.984645
 C         1.580159         0.219685         0.005772
 C         0.240433         0.044486        -0.524267
 C         2.290669         1.536552         0.083583
 O         3.617266         1.229304         0.615380
 C         3.513289        -0.055523         1.137090
 C         2.115283        -0.561950         1.234473
 H         3.215752        -3.333867        -0.633492
 H         4.704329        -2.503310        -0.399444
 H         3.664245        -2.915337         0.922359
 H         0.108858        -1.069079        -0.684755
 H        -0.493857         0.421893         0.184609
 H         0.175835         0.357213        -1.635492
 H         2.321188         2.043776        -0.876468
 H         1.880675         2.355969         0.776422
 H         4.239801        -0.335922         1.909247
 H         1.404558        -0.777792         1.953965
