19
Iteration:  4968
 C         3.917486        -2.435224        -0.290354
 C         3.126731        -1.238096         0.077337
 O         2.505941        -0.467442        -0.941540
 C         1.566272         0.221192        -0.077827
 C         0.105535         0.194319        -0.466468
 C         2.286074         1.545772         0.186888
 O         3.507171         1.126025         0.830635
 C         3.413561        -0.183869         1.162612
 C         2.042796        -0.675579         1.096847
 H         3.185054        -3.127496        -0.937185
 H         4.752631        -2.088545        -0.947528
 H         4.195069        -3.058799         0.580732
 H        -0.541659         0.310701         0.401758
 H        -0.107669         1.051472        -1.206529
 H        -0.021673        -0.637410        -1.117000
 H         2.640817         1.914811        -0.791200
 H         1.745633         2.238839         0.825268
 H         4.046340        -0.396581         2.041399
 H         1.444060        -1.290126         1.785741
