19
Iteration:  4372
 C         3.834802        -2.510834         0.073214
 C         3.154839        -1.225426         0.285052
 O         2.409871        -0.750262        -1.000712
 C         1.559165         0.171416        -0.158440
 C         0.050108         0.263089        -0.455621
 C         2.318128         1.534939        -0.094179
 O         3.653907         1.145176         0.578110
 C         3.492557        -0.110687         1.192943
 C         2.006472        -0.459525         1.143273
 H         3.254791        -3.209999        -0.548114
 H         4.847968        -2.278114        -0.374405
 H         4.062384        -2.910795         1.021828
 H        -0.534575         0.329781         0.443678
 H        -0.239643         1.341811        -0.757434
 H        -0.296225        -0.423894        -1.212903
 H         2.529165         2.085109        -1.016800
 H         1.762787         2.266883         0.503889
 H         4.259886        -0.271867         1.948418
 H         1.392882        -0.620533         2.033438
