19
Iteration:   207
 C         3.860186        -2.508114        -0.148708
 C         3.160712        -1.214070         0.139658
 O         2.059804        -0.818217        -0.714064
 C         1.532243         0.165506         0.231530
 C        -0.024312         0.070465         0.070129
 C         2.149394         1.440281        -0.219404
 O         3.636992         1.353706         0.125375
 C         3.715209         0.064860         0.765648
 C         2.450727        -0.433805         1.347393
 H         4.694850        -2.619748         0.607019
 H         3.156450        -3.339867        -0.042256
 H         4.263785        -2.553270        -1.205934
 H        -0.161862        -0.261225        -0.994004
 H        -0.464667        -0.707060         0.743482
 H        -0.482852         1.046115         0.386112
 H         2.217357         1.509634        -1.312601
 H         1.653016         2.326485         0.268432
 H         4.679108        -0.009828         1.367622
 H         2.208324        -0.386589         2.476836
