19
Iteration:   957charge 0 multiplicity 1
 C         3.722181        -2.494273         0.100523
 C         3.000511        -1.213250         0.182950
 O         2.114310        -0.714770        -0.877129
 C         1.604246         0.254403         0.178873
 C         0.123318        -0.166563         0.176305
 C         2.243769         1.627945        -0.198684
 O         3.612384         1.245253        -0.019653
 C         3.760038         0.051165         0.747521
 C         2.392917        -0.349477         1.323116
 H         4.866149        -2.454135         0.409943
 H         3.223237        -3.321138         0.546647
 H         3.570340        -2.715370        -1.016132
 H        -0.184329        -0.599731        -0.747715
 H         0.130157        -1.159864         0.674232
 H        -0.720320         0.342275         0.664047
 H         1.923477         1.771850        -1.233001
 H         1.815420         2.479015         0.506468
 H         4.650087         0.040187         1.235042
 H         1.981112        -0.786435         2.280562
