19
Iteration:  1881
 C         3.630011        -2.539504        -0.107199
 C         3.113829        -1.213750         0.169383
 O         2.422483        -0.475328        -1.019496
 C         1.600653         0.179874        -0.014766
 C         0.022796        -0.143380        -0.126699
 C         2.269275         1.607802         0.116324
 O         3.619816         1.324783         0.459161
 C         3.602142        -0.059320         0.931646
 C         2.217126        -0.582481         1.143203
 H         4.597137        -2.652272         0.490101
 H         3.005723        -3.366532         0.184643
 H         4.037568        -2.580919        -1.142011
 H        -0.092643        -1.200757         0.037714
 H        -0.458384         0.339783         0.735182
 H        -0.292017         0.156441        -1.130263
 H         2.447865         1.982531        -0.922892
 H         1.746371         2.409724         0.763138
 H         4.333215        -0.156651         1.786764
 H         1.581738        -0.908004         1.928262
