19
Iteration:  3183charge 0 multiplicity 1
 C         3.575387        -2.560294         0.027255
 C         3.095191        -1.162524         0.217441
 O         2.582541        -0.629146        -1.033384
 C         1.632398         0.181618        -0.146984
 C         0.177594         0.077273        -0.480707
 C         2.252063         1.531426         0.085431
 O         3.515143         1.300660         0.662712
 C         3.587016        -0.046024         1.124078
 C         2.093701        -0.585279         1.101245
 H         2.873410        -2.987169        -0.715208
 H         4.673034        -2.615521        -0.436600
 H         3.558286        -3.165598         0.979346
 H         0.021571         0.163869        -1.578552
 H        -0.196411        -0.876890        -0.034900
 H        -0.295330         0.954049        -0.057750
 H         2.378082         2.096863        -0.865461
 H         1.857595         2.281232         0.752115
 H         4.209581        -0.250226         2.035869
 H         1.453828        -0.980538         1.835338
