19
Iteration:  3518charge 0 multiplicity 1
 C         3.633716        -2.575347         0.154776
 C         3.051001        -1.197892         0.183819
 O         2.467134        -0.535920        -1.026792
 C         1.516830         0.176273        -0.143392
 C         0.067518         0.056355        -0.585671
 C         2.292350         1.583427         0.196048
 O         3.743682         1.250454         0.540490
 C         3.572432        -0.063458         1.101920
 C         2.137893        -0.579033         1.125595
 H         2.828798        -3.292192        -0.210791
 H         4.399959        -2.536850        -0.615462
 H         3.994583        -2.887810         1.166599
 H        -0.043214         0.651392        -1.501111
 H        -0.288444        -0.975472        -0.769774
 H        -0.554188         0.586447         0.108398
 H         2.382994         2.155941        -0.691182
 H         1.917481         2.083599         1.135604
 H         4.264435        -0.271191         1.937770
 H         1.522878        -1.149202         1.934384
