19
Iteration:  3267charge 0 multiplicity 1
 C         3.875147        -2.482328         0.124627
 C         3.151059        -1.224184         0.247467
 O         2.572585        -0.678952        -0.983695
 C         1.553001         0.227675        -0.208128
 C         0.084197         0.340086        -0.357521
 C         2.321096         1.516704        -0.037776
 O         3.568730         1.146699         0.580534
 C         3.349897        -0.089770         1.181299
 C         2.010226        -0.638235         0.984124
 H         3.135687        -3.303235        -0.011845
 H         4.270430        -2.508888        -0.845314
 H         4.627369        -2.741040         0.794774
 H        -0.177442         0.948018        -1.181687
 H        -0.416661        -0.624807        -0.731966
 H        -0.432201         0.622361         0.555202
 H         2.483800         2.139285        -0.889670
 H         1.886942         2.138980         0.834905
 H         3.943822        -0.405588         2.091485
 H         1.338261        -0.957638         1.738532
