19
Iteration:   690charge 0 multiplicity 1
 C         3.779027        -2.601017        -0.040608
 C         3.190069        -1.179182         0.171489
 O         2.129373        -0.817794        -0.819971
 C         1.510597         0.165567         0.168045
 C        -0.009488        -0.076481         0.221166
 C         2.214700         1.542750        -0.198255
 O         3.579134         1.334984         0.009206
 C         3.744438         0.117186         0.719100
 C         2.433624        -0.324450         1.332204
 H         4.174156        -2.926210         0.916624
 H         2.870698        -3.274415        -0.287786
 H         4.504950        -2.760505        -0.826345
 H        -0.587114         0.632596        -0.352405
 H        -0.162146        -1.107152         0.156732
 H        -0.319587         0.163463         1.231984
 H         2.002986         1.893094        -1.193926
 H         1.989175         2.333129         0.448124
 H         4.716477         0.144853         1.075598
 H         2.163915        -0.509799         2.424131
