19
Iteration:  3921
 C         3.582550        -2.623594         0.243587
 C         3.177954        -1.131717         0.227997
 O         2.480620        -0.656318        -1.013433
 C         1.629570         0.249911        -0.140282
 C         0.211553         0.212211        -0.411508
 C         2.250925         1.532235        -0.055785
 O         3.602680         1.206599         0.433033
 C         3.507471        -0.028471         1.087354
 C         2.122321        -0.569336         1.178512
 H         2.870026        -3.231363        -0.425954
 H         4.516061        -2.919547        -0.081706
 H         3.506699        -2.756347         1.383093
 H        -0.061824        -0.675841        -1.142140
 H        -0.290550         0.031467         0.535324
 H        -0.238477         1.151801        -0.780939
 H         2.281914         2.070738        -1.035991
 H         1.689213         2.020091         0.815359
 H         4.260616        -0.271938         1.910802
 H         1.406126        -1.317912         1.656982
