19
Iteration:  2481charge 0 multiplicity 1
 C         3.944683        -2.383946        -0.099509
 C         3.130374        -1.184138         0.071341
 O         2.505052        -0.537599        -1.098765
 C         1.568393         0.212111        -0.139462
 C         0.066788         0.204254        -0.334431
 C         2.272003         1.498460         0.123466
 O         3.571760         1.159397         0.793161
 C         3.376799        -0.175087         1.130825
 C         2.009766        -0.724828         1.053394
 H         3.512144        -3.129020        -0.820837
 H         4.926278        -2.066866        -0.499980
 H         4.058518        -3.057304         0.755472
 H        -0.290095         0.192944         0.678004
 H        -0.186504         1.217678        -0.609946
 H        -0.354691        -0.461075        -1.053872
 H         2.423529         2.176305        -0.739633
 H         1.799219         2.117968         0.947299
 H         4.063749        -0.400279         1.866504
 H         1.443578        -1.307754         1.813684
