19
Iteration:  4818charge 0 multiplicity 1
 C         3.557733        -2.514913        -0.244569
 C         3.099586        -1.166122         0.087034
 O         2.529241        -0.434216        -0.944814
 C         1.617616         0.194464         0.069078
 C         0.254883        -0.076075        -0.597504
 C         2.266001         1.583190         0.140548
 O         3.527689         1.314309         0.755175
 C         3.509557        -0.149016         1.175693
 C         2.153425        -0.704450         1.174185
 H         2.650441        -3.153187        -0.444574
 H         4.029138        -2.351409        -1.175432
 H         4.357823        -2.915326         0.331385
 H         0.364035        -0.260773        -1.637806
 H        -0.485468        -0.581437         0.053617
 H        -0.236389         0.850418        -0.629617
 H         2.529535         2.057569        -0.820405
 H         1.644266         2.421546         0.590939
 H         4.035628        -0.457824         2.115733
 H         1.749927        -1.093520         2.125924
