19
Iteration:  4655charge 0 multiplicity 1
 C         3.527237        -2.610695        -0.136869
 C         3.144912        -1.216073         0.152449
 O         2.545095        -0.469794        -0.925911
 C         1.584772         0.219039        -0.039083
 C         0.112451        -0.009294        -0.592622
 C         2.301198         1.633814         0.112654
 O         3.566443         1.276519         0.683826
 C         3.577493        -0.086209         1.220851
 C         2.170726        -0.625453         1.117466
 H         2.636181        -3.378048        -0.056928
 H         4.118299        -2.665066        -1.066640
 H         4.280045        -2.809925         0.619674
 H        -0.395259        -0.270687         0.339188
 H        -0.372648         0.877513        -1.088030
 H         0.149267        -0.672378        -1.433251
 H         2.261346         2.055612        -0.920105
 H         1.738072         2.346759         0.687420
 H         4.200174        -0.241564         2.061181
 H         1.633435        -1.206572         1.837734
