19
Iteration:   643charge 0 multiplicity 1
 C         4.095509        -2.407716        -0.000524
 C         3.131927        -1.149564         0.083195
 O         2.002739        -1.045367        -0.822337
 C         1.505330         0.107956         0.169788
 C        -0.053405         0.394984         0.259132
 C         2.125930         1.368121        -0.241937
 O         3.547243         1.307567         0.077029
 C         3.728956         0.067950         0.710578
 C         2.438907        -0.540420         1.340953
 H         4.538614        -2.768736         0.999714
 H         3.613567        -3.207770        -0.516589
 H         4.942680        -2.215315        -0.709084
 H        -0.242726         1.286991        -0.306550
 H        -0.626547        -0.525232         0.239630
 H        -0.306721         0.783924         1.278244
 H         2.175520         1.488124        -1.359422
 H         1.734231         2.291489         0.107503
 H         4.776631        -0.043700         1.177798
 H         1.951599        -0.799886         2.261568
