19
Iteration:  1936
 C         3.924874        -2.495114        -0.194252
 C         3.175400        -1.241204         0.122509
 O         2.287069        -0.715044        -0.927613
 C         1.521309         0.070706         0.018011
 C        -0.036627         0.337942        -0.267487
 C         2.219473         1.464632        -0.061755
 O         3.591388         1.365766         0.576683
 C         3.519809        -0.032110         1.015580
 C         2.286798        -0.690326         1.282803
 H         4.952121        -2.224181        -0.553291
 H         4.153610        -3.051596         0.734645
 H         3.419570        -3.355474        -0.684199
 H        -0.339738        -0.289603        -1.088295
 H        -0.592687         0.062986         0.657927
 H        -0.179747         1.374508        -0.555588
 H         2.265401         1.963857        -1.045399
 H         1.566171         2.135823         0.563168
 H         4.471402        -0.300343         1.478274
 H         1.941756        -1.107616         2.240726
