19
Iteration:   724charge 0 multiplicity 1
 C         3.506987        -2.555052         0.032984
 C         3.137685        -1.065311         0.143266
 O         2.316927        -0.650122        -0.954757
 C         1.579925         0.151150         0.128828
 C         0.193707        -0.224056         0.288655
 C         2.178868         1.552512        -0.093087
 O         3.501939         1.232157        -0.080461
 C         3.732874         0.146978         0.784523
 C         2.410080        -0.345757         1.329725
 H         4.306533        -2.772150         0.697048
 H         2.620708        -3.204960         0.444171
 H         3.772302        -2.947273        -0.952875
 H        -0.322850        -0.342044        -0.651495
 H         0.142013        -1.261326         0.544246
 H        -0.220003         0.370628         1.069343
 H         2.003325         1.940474        -1.063211
 H         1.994766         2.282564         0.642865
 H         4.703916         0.038479         1.240612
 H         2.064845        -0.736383         2.304105
