19
Iteration:  4701charge 0 multiplicity 1
 C         3.773568        -2.505732        -0.153051
 C         3.041566        -1.225557         0.159890
 O         2.432163        -0.669073        -1.002164
 C         1.624353         0.213540        -0.080006
 C         0.203551         0.212269        -0.509314
 C         2.221282         1.580458         0.117987
 O         3.560913         1.222160         0.693414
 C         3.510975        -0.079889         1.159635
 C         2.109272        -0.666062         1.186242
 H         3.160012        -3.136398        -0.819121
 H         4.689594        -2.215381        -0.751065
 H         4.177338        -3.011733         0.769399
 H        -0.209188         1.079086         0.064305
 H         0.079284         0.264487        -1.546775
 H        -0.286069        -0.751459        -0.239563
 H         2.481152         2.196711        -0.759550
 H         1.581264         2.225157         0.751206
 H         4.214734        -0.310886         1.979807
 H         1.457372        -0.945841         2.035263
