19
Iteration:   497
 C         3.769763        -2.539037         0.117631
 C         3.106163        -1.206058         0.121828
 O         2.165836        -0.711400        -0.892455
 C         1.511846         0.186449         0.119225
 C         0.060286        -0.058283         0.264456
 C         2.131469         1.546458        -0.158894
 O         3.628026         1.303440        -0.009231
 C         3.719325         0.053251         0.717147
 C         2.434725        -0.431399         1.251072
 H         4.190933        -2.775049         1.072451
 H         2.965246        -3.304471         0.143368
 H         4.581257        -2.702473        -0.635679
 H        -0.512767         0.522660        -0.473145
 H        -0.104679        -1.140653         0.207521
 H        -0.153911         0.386752         1.243636
 H         2.118223         1.824978        -1.204864
 H         1.723967         2.378102         0.428410
 H         4.618409        -0.087818         1.220232
 H         2.113788        -0.592989         2.327112
