19
Iteration:   371charge 0 multiplicity 1
 C         3.668194        -2.555928         0.148681
 C         3.103886        -1.129892         0.092574
 O         2.189214        -0.664897        -0.917244
 C         1.564176         0.175402         0.070014
 C         0.094353        -0.162886         0.221067
 C         2.217520         1.569572        -0.090227
 O         3.585046         1.300777         0.039512
 C         3.685088         0.082424         0.723468
 C         2.427202        -0.408918         1.208079
 H         4.565834        -2.579379         0.840352
 H         2.883384        -3.195589         0.526558
 H         3.986033        -3.058624        -0.734765
 H        -0.450290        -0.209957        -0.721026
 H         0.078533        -1.186844         0.659217
 H        -0.259905         0.490094         1.047103
 H         2.015876         2.057659        -1.037858
 H         1.940528         2.188000         0.755801
 H         4.617919         0.040173         1.182586
 H         2.153852        -0.951524         2.131635
