19
Iteration:  3480
 C         3.754176        -2.574870        -0.007642
 C         2.981874        -1.251280         0.248465
 O         2.454568        -0.588486        -0.988131
 C         1.691561         0.204760        -0.073997
 C         0.162553         0.148479        -0.498428
 C         2.355379         1.567929        -0.063277
 O         3.595210         1.239422         0.638177
 C         3.475462        -0.068472         1.169401
 C         2.013755        -0.579403         1.192156
 H         3.142345        -3.506814        -0.114432
 H         4.220134        -2.520311        -1.039543
 H         4.566733        -2.765650         0.725543
 H        -0.117606         1.049746        -1.098765
 H        -0.117269        -0.719341        -1.068289
 H        -0.341808         0.087620         0.492205
 H         2.519083         1.975748        -1.128367
 H         1.819573         2.434628         0.405255
 H         4.066179        -0.360981         2.052283
 H         1.281554        -0.858369         1.895672
