19
Iteration:  4634charge 0 multiplicity 1
 C         3.578333        -2.576053         0.032750
 C         3.118368        -1.156352         0.086949
 O         2.585568        -0.519644        -1.136215
 C         1.636929         0.215870        -0.120132
 C         0.240605         0.043866        -0.457868
 C         2.239465         1.564222         0.174125
 O         3.584893         1.232801         0.726121
 C         3.473919        -0.084475         1.081641
 C         2.058350        -0.605873         1.143951
 H         2.639294        -3.215386         0.176187
 H         4.063072        -2.674516        -0.944342
 H         4.348412        -2.939109         0.707799
 H        -0.162201        -0.583794         0.360082
 H        -0.360942         0.936178        -0.535452
 H         0.228576        -0.312647        -1.474653
 H         2.159291         2.312469        -0.668736
 H         1.667962         2.006139         1.008858
 H         4.209603        -0.361494         1.783070
 H         1.388262        -0.791816         1.964392
