19
Iteration:   469charge 0 multiplicity 1
 C         3.933917        -2.348773        -0.090419
 C         3.009269        -1.233140         0.224535
 O         2.026068        -0.932019        -0.798940
 C         1.519814         0.193958         0.114902
 C         0.033006         0.099560         0.269690
 C         2.245986         1.454865        -0.303241
 O         3.653175         1.250191         0.079811
 C         3.664883         0.038313         0.815875
 C         2.379581        -0.385504         1.278789
 H         4.477740        -2.728292         0.848002
 H         3.436192        -3.238502        -0.445866
 H         4.729893        -2.015866        -0.804017
 H        -0.499487         0.693407        -0.480275
 H        -0.246824        -0.967553         0.145802
 H        -0.144463         0.518517         1.278643
 H         2.478758         1.560189        -1.388207
 H         1.862416         2.448099         0.051656
 H         4.594282        -0.073126         1.397084
 H         2.041239        -0.532914         2.286179
