19
Iteration:  4110
 C         3.612268        -2.570922         0.004841
 C         3.075883        -1.138648         0.203740
 O         2.493718        -0.667483        -0.909931
 C         1.603525         0.182084        -0.053426
 C         0.110464         0.168800        -0.542853
 C         2.313232         1.516844        -0.041825
 O         3.614256         1.273238         0.597497
 C         3.530043        -0.075725         1.133153
 C         2.146614        -0.557302         1.181992
 H         2.951758        -3.090542        -0.712003
 H         4.578407        -2.617240        -0.588404
 H         3.769794        -3.034710         0.963672
 H        -0.390220         1.053970        -0.194066
 H        -0.035890         0.052600        -1.686359
 H        -0.399427        -0.690379        -0.060174
 H         2.498536         1.981297        -1.021579
 H         1.900757         2.215518         0.676846
 H         4.108982        -0.357067         2.052222
 H         1.641655        -0.909292         2.061710
