19
Iteration:  2280charge 0 multiplicity 1
 C         3.930292        -2.420106        -0.397851
 C         3.174700        -1.174347         0.098134
 O         2.398092        -0.546650        -0.937586
 C         1.550984         0.144098        -0.001429
 C         0.105838         0.270136        -0.580603
 C         2.236221         1.512130         0.207499
 O         3.482067         1.246636         0.851261
 C         3.521775        -0.165595         1.161660
 C         2.116399        -0.792049         1.215569
 H         3.507688        -2.696187        -1.417022
 H         5.045530        -2.446557        -0.413490
 H         3.595891        -3.278199         0.235449
 H         0.277128         0.111223        -1.634599
 H        -0.701985        -0.391693        -0.298728
 H        -0.108477         1.325854        -0.483275
 H         2.294401         1.927705        -0.774334
 H         1.761330         2.164275         0.994518
 H         4.199307        -0.535461         1.873440
 H         1.460076        -1.274863         1.997164
