19
Iteration:  4988
 C         3.781904        -2.437100        -0.171188
 C         3.121766        -1.167435        -0.011811
 O         2.497356        -0.377631        -1.129092
 C         1.554185         0.151775         0.005141
 C         0.183175         0.185543        -0.509998
 C         2.220687         1.557701         0.287103
 O         3.566176         1.228029         0.837748
 C         3.495152        -0.228411         1.154150
 C         2.068313        -0.839297         1.083526
 H         3.090154        -3.327030        -0.338790
 H         4.654167        -2.309252        -0.869084
 H         4.079437        -2.743781         0.831428
 H        -0.460193         0.678092         0.242174
 H         0.100027         0.583281        -1.494196
 H        -0.146183        -0.838154        -0.749008
 H         2.375261         2.075007        -0.695943
 H         1.565904         2.028951         1.075717
 H         4.254146        -0.441461         1.912957
 H         1.422028        -1.381930         1.822149
