19
Iteration:  4877charge 0 multiplicity 1
 C         3.808051        -2.521207        -0.058474
 C         3.152262        -1.165183         0.015766
 O         2.486240        -0.508697        -1.083277
 C         1.628454         0.225225        -0.111393
 C         0.166451         0.240676        -0.465469
 C         2.138362         1.531229         0.323533
 O         3.520838         1.221087         0.759034
 C         3.485834        -0.172170         1.137786
 C         2.117743        -0.730615         1.021049
 H         3.138806        -3.290156        -0.447435
 H         4.593404        -2.524822        -0.883232
 H         4.203364        -2.829599         0.947927
 H        -0.188865        -0.814830        -0.540469
 H        -0.413543         0.596210         0.319815
 H         0.043301         0.859878        -1.413205
 H         2.316250         2.219929        -0.506859
 H         1.500248         1.911574         1.119718
 H         4.331986        -0.525535         1.710376
 H         1.448268        -1.294882         1.644643
