19
Iteration:  3780charge 0 multiplicity 1
 C         3.706360        -2.489935         0.141924
 C         3.132351        -1.135157         0.162675
 O         2.347810        -0.724988        -0.960201
 C         1.586297         0.155612        -0.060897
 C         0.138117         0.264394        -0.543835
 C         2.337372         1.485795        -0.004135
 O         3.585097         1.253419         0.573340
 C         3.552355        -0.102422         1.021141
 C         2.132727        -0.592105         1.211176
 H         3.039622        -3.249421        -0.368175
 H         4.605139        -2.561877        -0.422312
 H         3.936838        -2.688587         1.234510
 H        -0.480460         0.540751         0.383555
 H         0.170598         1.153263        -1.107706
 H        -0.235507        -0.577382        -1.095586
 H         2.444762         1.824897        -1.037564
 H         1.693839         2.132603         0.627839
 H         4.160875        -0.536080         1.804564
 H         1.761187        -0.934112         2.148569
