19
Iteration:  2499
 C         4.049032        -2.420770        -0.159400
 C         3.154455        -1.233513         0.087122
 O         2.444279        -0.573500        -1.049261
 C         1.534412         0.123482        -0.135527
 C         0.061898         0.445065        -0.363416
 C         2.213286         1.447159         0.160614
 O         3.460899         1.204967         0.732858
 C         3.493952        -0.161092         1.214688
 C         2.101825        -0.787535         1.078811
 H         3.500564        -3.218271        -0.865317
 H         5.015948        -2.221312        -0.631860
 H         4.197105        -2.868530         0.856125
 H        -0.621745         0.064968         0.449165
 H        -0.132797         1.550177        -0.564560
 H        -0.159685        -0.119979        -1.274500
 H         2.491095         1.822633        -0.806920
 H         1.533071         2.228876         0.569827
 H         4.043675        -0.515248         2.133596
 H         1.392400        -1.188718         1.721839
