19
Iteration:  3948charge 0 multiplicity 1
 C         3.682761        -2.627630         0.307883
 C         3.041427        -1.254604         0.210241
 O         2.513909        -0.614012        -1.042515
 C         1.544213         0.258103        -0.116584
 C         0.014670         0.197940        -0.418550
 C         2.379615         1.516626        -0.057963
 O         3.695101         1.287894         0.543449
 C         3.523173        -0.071666         1.000575
 C         2.085726        -0.609393         1.089373
 H         3.348965        -3.392627        -0.321022
 H         4.780193        -2.494465        -0.065942
 H         3.738588        -2.787360         1.332915
 H        -0.321329        -0.626935        -0.939306
 H        -0.516528         0.129750         0.569784
 H        -0.264119         1.160834        -0.877900
 H         2.327244         1.879084        -1.078391
 H         1.812495         2.184917         0.592179
 H         4.087344        -0.468954         1.784604
 H         1.462959        -0.682145         1.916046
