19
Iteration:   547charge 0 multiplicity 1
 C         3.380241        -2.623571         0.161981
 C         3.201000        -1.216624         0.132999
 O         2.233881        -0.762654        -0.861391
 C         1.613851         0.124124         0.186253
 C         0.166536        -0.176921         0.060419
 C         2.085700         1.591255         0.022136
 O         3.454322         1.415201        -0.010836
 C         3.852739         0.172131         0.594319
 C         2.635480        -0.392575         1.234010
 H         4.333509        -2.918442         0.767808
 H         2.548006        -3.269715         0.561554
 H         3.678409        -2.924559        -0.858080
 H        -0.155832        -0.184404        -0.996497
 H        -0.005106        -1.080144         0.637150
 H        -0.367859         0.647977         0.577121
 H         1.744257         2.205713        -0.865359
 H         1.800179         2.213453         0.982650
 H         4.793808         0.363730         1.252405
 H         2.441563        -0.628422         2.283469
