19
Iteration:  4762
 C         3.920270        -2.489130        -0.014420
 C         3.059694        -1.196671         0.090227
 O         2.478537        -0.534810        -1.063403
 C         1.548158         0.174232        -0.006995
 C         0.153125         0.299197        -0.392653
 C         2.243681         1.496308         0.156421
 O         3.588688         1.215256         0.681061
 C         3.492379        -0.121506         1.068354
 C         1.988554        -0.760828         1.055942
 H         3.511619        -3.380174        -0.600141
 H         4.813130        -2.315375        -0.561476
 H         4.097167        -2.835152         0.970922
 H        -0.093627         1.036980        -1.127598
 H        -0.252854        -0.623890        -1.009499
 H        -0.412269         0.592006         0.442521
 H         2.421551         1.992493        -0.809914
 H         1.572536         2.009466         0.932590
 H         4.196614        -0.376212         1.818504
 H         1.252476        -1.209617         1.696567
