19
Iteration:  3123charge 0 multiplicity 1
 C         3.749045        -2.489214         0.073930
 C         3.070398        -1.155646         0.128192
 O         2.391062        -0.662691        -1.033432
 C         1.589356         0.152730        -0.078346
 C         0.170122         0.185831        -0.585937
 C         2.366684         1.596650         0.048685
 O         3.547667         1.221823         0.697161
 C         3.561620        -0.092358         1.118582
 C         2.066489        -0.621426         1.171763
 H         2.982906        -3.303508         0.080861
 H         4.505544        -2.619956        -0.619864
 H         4.138721        -2.540030         1.098116
 H        -0.069323         0.988024        -1.265843
 H         0.071423        -0.642404        -1.211791
 H        -0.604477         0.068209         0.166319
 H         2.437069         1.901511        -0.976866
 H         1.805669         2.162148         0.782577
 H         4.320901        -0.447858         1.776535
 H         1.557436        -0.834838         2.144487
