19
Iteration:  4062charge 0 multiplicity 1
 C         3.614600        -2.594198         0.233299
 C         3.133574        -1.192782         0.176391
 O         2.487319        -0.645244        -1.065845
 C         1.608656         0.271196        -0.203110
 C         0.054628         0.165706        -0.516311
 C         2.288960         1.570793         0.114811
 O         3.622600         1.253853         0.600868
 C         3.547676        -0.104552         1.052796
 C         2.132024        -0.597088         1.084455
 H         2.834316        -3.355953         0.395393
 H         4.060081        -2.908701        -0.651261
 H         4.383013        -2.477517         1.047414
 H        -0.477819         0.130131         0.496419
 H        -0.369138         0.923431        -1.098757
 H        -0.091931        -0.785326        -1.024359
 H         2.683561         2.178444        -0.691519
 H         1.872490         2.150675         0.895180
 H         4.205577        -0.244765         1.875664
 H         1.635281        -0.979409         1.993329
