19
Iteration:  4036
 C         3.658955        -2.561659         0.109536
 C         3.073897        -1.187037         0.208545
 O         2.437631        -0.650371        -0.967659
 C         1.629655         0.178946        -0.071461
 C         0.208541         0.177557        -0.527860
 C         2.300658         1.492622         0.033997
 O         3.652808         1.294387         0.523697
 C         3.440892        -0.113622         1.107707
 C         2.058528        -0.527748         1.182226
 H         2.964174        -3.362617         0.315054
 H         4.044307        -2.752461        -0.980919
 H         4.496198        -2.539824         0.747727
 H        -0.499232        -0.256097         0.186139
 H        -0.055994         1.243988        -0.794978
 H         0.144471        -0.392595        -1.463631
 H         2.555502         1.877595        -0.954588
 H         1.863865         2.213678         0.767680
 H         4.188104        -0.258521         1.928908
 H         1.450381        -0.989006         1.956642
