19
Iteration:  3389charge 0 multiplicity 1
 C         3.732081        -2.479799         0.097595
 C         3.099811        -1.199152         0.136614
 O         2.407404        -0.553695        -0.993499
 C         1.574695         0.230238        -0.081428
 C         0.098858         0.113757        -0.562477
 C         2.333952         1.495415         0.141406
 O         3.717484         1.184144         0.562603
 C         3.445069        -0.098540         1.156196
 C         2.080718        -0.545408         1.080169
 H         3.203033        -3.144319        -0.509852
 H         4.755395        -2.477304        -0.297668
 H         3.827172        -2.898716         1.105864
 H        -0.097656        -0.024296        -1.654539
 H        -0.278170        -0.797317        -0.033869
 H        -0.571581         0.867186        -0.163508
 H         2.447646         2.100045        -0.711373
 H         1.746464         2.096241         0.831672
 H         4.120625        -0.233665         1.991475
 H         1.522844        -1.172985         1.831530
