19
Iteration:  4703charge 0 multiplicity 1
 C         3.797522        -2.508822        -0.149260
 C         3.035054        -1.239080         0.161947
 O         2.432543        -0.667772        -1.018644
 C         1.623004         0.210853        -0.088988
 C         0.180259         0.229392        -0.495889
 C         2.239792         1.586029         0.127753
 O         3.565962         1.224522         0.690966
 C         3.491879        -0.074357         1.157430
 C         2.109718        -0.667614         1.182711
 H         3.178884        -3.127819        -0.728438
 H         4.724436        -2.207214        -0.700230
 H         4.165302        -3.061256         0.762452
 H        -0.258212         1.105933        -0.014073
 H         0.097825         0.230203        -1.509466
 H        -0.276702        -0.743046        -0.210257
 H         2.479948         2.196114        -0.751872
 H         1.514668         2.190991         0.758215
 H         4.235933        -0.356238         1.956717
 H         1.484684        -0.979946         2.050650
