19
Iteration:  2891charge 0 multiplicity 1
 C         3.891454        -2.457786         0.126007
 C         3.118104        -1.241604         0.192677
 O         2.423514        -0.634626        -1.071809
 C         1.561980         0.122969        -0.110992
 C         0.163600         0.412260        -0.363495
 C         2.315227         1.519130        -0.065036
 O         3.519036         1.210341         0.644579
 C         3.446816        -0.120872         1.099391
 C         2.049739        -0.761844         1.096692
 H         3.113323        -3.287339        -0.109219
 H         4.604565        -2.430071        -0.765821
 H         4.502127        -2.518825         1.059660
 H        -0.202814        -0.191271        -1.167103
 H        -0.409432        -0.005220         0.479597
 H        -0.091218         1.439465        -0.373918
 H         2.479547         1.820715        -1.146004
 H         1.880731         2.295375         0.541224
 H         4.165926        -0.166334         1.888339
 H         1.361756        -1.245394         1.839325
