19
Iteration:  4599charge 0 multiplicity 1
 C         3.782635        -2.600527         0.111765
 C         3.198743        -1.193125         0.149763
 O         2.435062        -0.539298        -1.022399
 C         1.604592         0.183981        -0.108827
 C         0.116637         0.251771        -0.524952
 C         2.260125         1.591868         0.126899
 O         3.572810         1.218822         0.709860
 C         3.497094        -0.117573         1.031102
 C         2.058286        -0.694671         1.029737
 H         2.986980        -3.369248        -0.237513
 H         4.473248        -2.735094        -0.709951
 H         4.186766        -2.767734         1.079758
 H        -0.290852        -0.735304        -0.582559
 H        -0.373479         0.843141         0.326054
 H        -0.083237         0.600364        -1.504570
 H         2.335828         2.245791        -0.746174
 H         1.738036         2.046949         0.965346
 H         4.202007        -0.322752         1.865999
 H         1.535585        -1.140741         1.872887
