19
Iteration:  3058
 C         3.828521        -2.435573         0.020408
 C         3.069515        -1.255712         0.266357
 O         2.537330        -0.631041        -0.980866
 C         1.556201         0.156177        -0.091396
 C         0.110750         0.313034        -0.477177
 C         2.304181         1.471013        -0.123360
 O         3.630239         1.189677         0.575699
 C         3.430571        -0.112917         1.243831
 C         1.949890        -0.623897         1.160131
 H         3.135753        -3.354811        -0.302739
 H         4.542839        -2.315379        -0.807761
 H         4.345280        -2.657783         1.001454
 H        -0.055053         1.259761        -0.961963
 H        -0.078615        -0.403871        -1.219591
 H        -0.461828         0.151988         0.441528
 H         2.613942         1.862515        -1.089435
 H         1.845217         2.229801         0.571776
 H         4.163377        -0.107160         2.070710
 H         1.324322        -1.157993         1.911296
