19
Iteration:  1357charge 0 multiplicity 1
 C         3.768389        -2.559771         0.042798
 C         3.130910        -1.210719         0.251651
 O         2.093461        -0.868751        -0.679146
 C         1.564286         0.100820         0.165006
 C         0.061588         0.087936         0.103631
 C         2.083067         1.451077        -0.307258
 O         3.546608         1.418126         0.031479
 C         3.788038         0.125173         0.683392
 C         2.552960        -0.423268         1.316375
 H         4.730465        -2.692748         0.676719
 H         2.988115        -3.292663         0.271694
 H         4.019899        -2.531926        -1.026609
 H        -0.044910         0.064889        -0.985988
 H        -0.436434        -0.809081         0.466853
 H        -0.367305         0.986792         0.533064
 H         2.036665         1.525550        -1.384824
 H         1.638710         2.283954         0.200654
 H         4.672260         0.034615         1.369966
 H         2.174361        -0.619841         2.282974
