19
Iteration:   405charge 0 multiplicity 1
 C         3.902236        -2.447420        -0.081441
 C         3.064823        -1.240054         0.170721
 O         2.103333        -0.944505        -0.784259
 C         1.512486         0.135585         0.178063
 C        -0.019054         0.164286         0.116814
 C         2.242794         1.476625        -0.180193
 O         3.573014         1.350993         0.140199
 C         3.724522         0.110231         0.710990
 C         2.444875        -0.459272         1.317234
 H         4.664455        -2.572687         0.726837
 H         3.318325        -3.376194         0.049250
 H         4.325981        -2.351440        -1.024893
 H        -0.446277         0.140538        -0.882746
 H        -0.435587        -0.674184         0.709880
 H        -0.440054         1.110842         0.496097
 H         2.079848         1.677051        -1.238912
 H         1.698688         2.229798         0.339161
 H         4.717994        -0.103235         1.164130
 H         2.264846        -0.873486         2.287365
