19
Iteration:  4558
 C         3.843919        -2.441810        -0.097182
 C         3.094242        -1.218160         0.303059
 O         2.387421        -0.695214        -0.893928
 C         1.574213         0.193556        -0.137296
 C         0.146716         0.319633        -0.562102
 C         2.362401         1.488738        -0.001893
 O         3.595382         1.247469         0.635390
 C         3.466332        -0.166073         1.181517
 C         2.000092        -0.654757         1.215982
 H         3.260817        -2.766873        -1.008757
 H         4.767187        -2.132874        -0.690279
 H         4.196623        -3.173289         0.632607
 H         0.077541        -0.461424        -1.360320
 H        -0.531898        -0.045471         0.225009
 H        -0.208946         1.349080        -0.735547
 H         2.585105         1.833208        -1.064850
 H         1.696567         2.309605         0.442980
 H         4.203256        -0.487258         1.911477
 H         1.422404        -0.923621         2.087853
