19
Iteration:   678charge 0 multiplicity 1
 C         3.858438        -2.520739        -0.007134
 C         3.170299        -1.168198         0.038176
 O         2.050331        -0.938027        -0.779575
 C         1.543714         0.191917         0.232071
 C         0.032826         0.099024         0.209736
 C         2.144714         1.490876        -0.211732
 O         3.555879         1.322940         0.085906
 C         3.757916         0.088525         0.671324
 C         2.489195        -0.384840         1.326382
 H         4.166485        -2.912832         0.984193
 H         3.047488        -3.235496        -0.391295
 H         4.729201        -2.500832        -0.650082
 H        -0.453927         0.726101        -0.526374
 H        -0.290711        -0.814020        -0.188771
 H        -0.337043         0.238213         1.220513
 H         2.000757         1.550117        -1.296837
 H         1.676395         2.272822         0.304798
 H         4.653793        -0.004087         1.223017
 H         2.186492        -0.444765         2.417086
