19
Iteration:   486charge 0 multiplicity 1
 C         3.848545        -2.529928         0.071471
 C         3.055191        -1.192001         0.113730
 O         2.095263        -0.769785        -0.877098
 C         1.604420         0.177190         0.159768
 C         0.110784         0.015003         0.294616
 C         2.214401         1.503282        -0.283472
 O         3.611719         1.300782         0.042835
 C         3.680147         0.025546         0.728586
 C         2.328393        -0.372384         1.307805
 H         4.320244        -2.570159         1.022191
 H         3.267162        -3.420637        -0.311952
 H         4.651252        -2.472617        -0.727266
 H        -0.516567         0.472244        -0.487401
 H        -0.093186        -1.060873         0.174290
 H        -0.338152         0.182495         1.285290
 H         1.899325         1.794151        -1.284147
 H         1.961868         2.244835         0.476276
 H         4.590273        -0.069769         1.245271
 H         1.886765        -0.519276         2.342445
