19
Iteration:   306
 C         3.607433        -2.573838         0.061092
 C         3.155407        -1.124396         0.111111
 O         2.158190        -0.852309        -0.823452
 C         1.543954         0.086443         0.223039
 C         0.071252        -0.094742         0.174681
 C         2.088188         1.511861        -0.187753
 O         3.633673         1.416540         0.036564
 C         3.782483         0.161298         0.688108
 C         2.560116        -0.333988         1.311752
 H         4.005628        -3.085939         1.033293
 H         2.653424        -3.146684        -0.159606
 H         4.335389        -2.683804        -0.733276
 H        -0.318074         0.718591        -0.490682
 H        -0.169410        -0.874665        -0.592095
 H        -0.512029        -0.236417         1.158054
 H         1.882286         1.685905        -1.245921
 H         1.824976         2.373433         0.477138
 H         4.589331         0.034837         1.307452
 H         2.383938        -0.803035         2.353455
