19
Iteration:  2549charge 0 multiplicity 1
 C         3.839072        -2.440259        -0.274477
 C         3.077910        -1.158921         0.050435
 O         2.378956        -0.605400        -1.000617
 C         1.553169         0.170281        -0.008537
 C         0.140621         0.148649        -0.614420
 C         2.289080         1.561772         0.209511
 O         3.614683         1.243831         0.813296
 C         3.475614        -0.114741         1.216083
 C         2.114122        -0.674838         1.191893
 H         3.321443        -3.351613        -0.441950
 H         4.364687        -2.188149        -1.231220
 H         4.597417        -2.576575         0.514161
 H        -0.288324        -0.671232        -0.069784
 H        -0.548062         0.913534        -0.412486
 H         0.285379        -0.095013        -1.710836
 H         2.283019         2.292370        -0.694100
 H         1.573970         1.980720         0.950333
 H         4.152251        -0.707860         1.898225
 H         1.534952        -1.115247         2.075500
