19
Iteration:  1011charge 0 multiplicity 1
 C         3.869669        -2.496572        -0.046241
 C         3.145124        -1.212626         0.169025
 O         2.132968        -1.044505        -0.742739
 C         1.558729         0.036824         0.111313
 C         0.065247         0.348664         0.195830
 C         2.091548         1.423549        -0.306703
 O         3.513491         1.320556         0.043065
 C         3.719611         0.228791         0.835180
 C         2.447417        -0.500529         1.289716
 H         4.727043        -2.471008         0.744025
 H         3.240917        -3.280850         0.258092
 H         4.457775        -2.544206        -0.989195
 H        -0.128590         1.217671        -0.443606
 H        -0.590644        -0.493771        -0.106701
 H        -0.183817         0.602956         1.243489
 H         1.906889         1.577112        -1.362083
 H         1.546999         2.192014         0.329283
 H         4.671932         0.189227         1.253750
 H         2.280275        -0.761711         2.392038
