19
Iteration:   211
 C         3.942696        -2.518389        -0.154262
 C         3.118229        -1.241901         0.152168
 O         2.078821        -0.850418        -0.727673
 C         1.524623         0.175521         0.265428
 C        -0.004775         0.128854         0.102947
 C         2.161161         1.454088        -0.216651
 O         3.628104         1.350640         0.111821
 C         3.707800         0.086831         0.751867
 C         2.389002        -0.464975         1.340473
 H         4.780800        -2.617038         0.550957
 H         3.245218        -3.385159        -0.012711
 H         4.253627        -2.407412        -1.142893
 H        -0.214505        -0.168730        -0.875587
 H        -0.489479        -0.663503         0.642382
 H        -0.539749         1.015314         0.343684
 H         2.202503         1.483646        -1.296994
 H         1.727124         2.352067         0.206736
 H         4.600917        -0.109383         1.241541
 H         2.100898        -0.351298         2.404752
