19
Iteration:    88charge 0 multiplicity 1
 C         3.916616        -2.577545        -0.042745
 C         3.111239        -1.282671         0.206332
 O         2.191252        -0.883517        -0.763224
 C         1.519810         0.168542         0.176439
 C        -0.024694         0.207565         0.085790
 C         2.163716         1.481974        -0.217300
 O         3.551454         1.424108         0.144349
 C         3.703618         0.068657         0.702375
 C         2.399442        -0.499731         1.311319
 H         4.654521        -2.754644         0.757396
 H         3.305325        -3.427242        -0.314995
 H         4.503237        -2.401055        -0.961999
 H        -0.315630         1.174618        -0.311788
 H        -0.473106        -0.474089        -0.631303
 H        -0.465919        -0.120424         1.015544
 H         2.045331         1.514838        -1.312544
 H         1.682578         2.331762         0.289355
 H         4.571351         0.089587         1.458167
 H         2.175471        -0.791253         2.357452
