19
Iteration:  1783charge 0 multiplicity 1
 C         3.933033        -2.322696        -0.161494
 C         3.030524        -1.167721         0.117274
 O         2.253423        -0.714564        -0.992067
 C         1.582383         0.118886         0.031080
 C         0.048930         0.158366        -0.017535
 C         2.251957         1.541343        -0.048952
 O         3.643310         1.251418         0.401508
 C         3.563687        -0.094237         1.031000
 C         2.194414        -0.663189         1.249662
 H         3.324808        -3.229679        -0.497953
 H         4.463146        -2.109252        -1.072209
 H         4.574932        -2.552371         0.709709
 H        -0.288050        -0.652205         0.629390
 H        -0.476471         1.132285         0.176609
 H        -0.131045        -0.183501        -1.084003
 H         2.057153         1.727413        -1.109146
 H         1.848980         2.297530         0.663383
 H         4.463382        -0.395212         1.614203
 H         1.603697        -0.880792         2.118154
