19
Iteration:  2296
 C         3.951853        -2.412239        -0.378603
 C         3.212369        -1.167684         0.082209
 O         2.450696        -0.638469        -1.002171
 C         1.544925         0.083174        -0.006083
 C         0.161550         0.374987        -0.455073
 C         2.220937         1.505180         0.163898
 O         3.475666         1.246067         0.888105
 C         3.424755        -0.218263         1.174180
 C         2.030017        -0.733421         1.109531
 H         3.416927        -2.649903        -1.258604
 H         4.973391        -2.038540        -0.527383
 H         4.081097        -3.270159         0.276452
 H         0.054814         0.279739        -1.585142
 H        -0.561269        -0.326070         0.085157
 H        -0.206695         1.372354        -0.107879
 H         2.696263         1.731926        -0.851118
 H         1.483244         2.184286         0.600672
 H         4.147014        -0.410579         2.098660
 H         1.582807        -1.185241         1.942616
