19
Iteration:  1249
 C         3.713163        -2.512706         0.084545
 C         3.153522        -1.146376         0.214684
 O         2.039322        -1.046183        -0.724931
 C         1.531125         0.103533         0.201108
 C         0.050802         0.049919         0.099884
 C         2.147936         1.476912        -0.248219
 O         3.582774         1.419855        -0.012815
 C         3.792809         0.181038         0.671201
 C         2.538272        -0.348051         1.312258
 H         4.164254        -2.978206         1.019705
 H         3.092998        -3.226399        -0.354195
 H         4.614188        -2.357076        -0.510197
 H        -0.247190         0.975581        -0.333407
 H        -0.109697        -0.818876        -0.501072
 H        -0.610811        -0.014769         0.919562
 H         1.974707         1.618818        -1.315085
 H         1.793703         2.389181         0.357909
 H         4.728733        -0.146016         1.193583
 H         2.553746        -0.480390         2.405864
