19
Iteration:  3545charge 0 multiplicity 1
 C         3.589042        -2.628155         0.113034
 C         3.174992        -1.218046         0.128349
 O         2.550327        -0.609786        -0.986581
 C         1.578944         0.201267        -0.061746
 C         0.241868         0.201552        -0.490095
 C         2.167710         1.576658         0.140519
 O         3.493951         1.243887         0.543133
 C         3.566630        -0.070225         1.050437
 C         2.207750        -0.633728         1.151365
 H         2.863673        -2.975094        -0.636980
 H         4.503345        -2.822121        -0.525290
 H         3.392076        -2.924258         1.138498
 H         0.235524         0.221411        -1.632619
 H        -0.392315        -0.659375        -0.209308
 H        -0.229170         1.196983        -0.149610
 H         2.249182         2.083042        -0.887774
 H         1.707991         2.172196         0.915861
 H         4.189007        -0.087346         1.931064
 H         1.508557        -0.909580         1.885042
