19
Iteration:   181charge 0 multiplicity 1
 C         3.504135        -2.499141         0.007807
 C         3.179071        -1.098255         0.183286
 O         2.217498        -0.823422        -0.869187
 C         1.586121         0.134943         0.178823
 C         0.048314        -0.133844         0.105839
 C         2.149161         1.505581        -0.104033
 O         3.592830         1.387718         0.090802
 C         3.812585         0.170320         0.751515
 C         2.511679        -0.451956         1.301553
 H         4.133862        -2.995534         0.702988
 H         2.517705        -2.984537        -0.076249
 H         3.895695        -2.624424        -1.073590
 H        -0.060270        -0.447479        -0.990473
 H        -0.209925        -0.986392         0.778657
 H        -0.528471         0.743141         0.475672
 H         2.163395         1.809413        -1.168335
 H         1.676916         2.260737         0.553717
 H         4.836560         0.170228         1.094145
 H         2.168584        -0.904528         2.166763
