19
Iteration:  2256
 C         3.794067        -2.419751        -0.254512
 C         3.059694        -1.239865         0.038469
 O         2.453245        -0.437985        -0.983512
 C         1.568757         0.217509        -0.027662
 C         0.158648         0.097577        -0.594483
 C         2.191180         1.572167         0.411697
 O         3.550428         1.240526         0.742699
 C         3.536154        -0.217002         1.150059
 C         2.161692        -0.707046         1.110515
 H         3.699727        -2.554029        -1.356722
 H         4.911250        -2.441438        -0.001264
 H         3.352048        -3.378605         0.164875
 H         0.374809        -0.029050        -1.639286
 H        -0.322801        -0.820872        -0.342270
 H        -0.467495         0.992872        -0.423910
 H         2.174060         2.140926        -0.505720
 H         1.701806         2.075045         1.317049
 H         4.232018        -0.565726         1.870084
 H         1.693144        -1.298725         1.886290
