19
Iteration:  2278
 C         3.916531        -2.434169        -0.405183
 C         3.160690        -1.158233         0.104380
 O         2.397670        -0.539761        -0.943576
 C         1.553036         0.161616         0.008730
 C         0.107242         0.261812        -0.599302
 C         2.231530         1.510029         0.213160
 O         3.485368         1.234253         0.847977
 C         3.537239        -0.143314         1.156534
 C         2.118151        -0.808973         1.223425
 H         3.531853        -2.700231        -1.413013
 H         5.059899        -2.418717        -0.331803
 H         3.627176        -3.321687         0.241546
 H         0.270978         0.087507        -1.637945
 H        -0.654651        -0.413399        -0.272121
 H        -0.168159         1.329581        -0.487483
 H         2.320645         1.938057        -0.773136
 H         1.766312         2.101037         1.034816
 H         4.176146        -0.521446         1.881958
 H         1.495493        -1.260182         1.998247
