19
Iteration:  1911
 C         3.762665        -2.445101        -0.194793
 C         3.151436        -1.148318         0.128495
 O         2.308403        -0.696449        -0.966949
 C         1.595913         0.193728         0.038972
 C         0.056231         0.070262        -0.137035
 C         2.314535         1.504636        -0.022893
 O         3.540355         1.280920         0.557324
 C         3.605900        -0.055913         0.993503
 C         2.214366        -0.538795         1.199184
 H         4.860722        -2.253155        -0.053535
 H         3.529642        -3.264792         0.497386
 H         3.516672        -2.912794        -1.140298
 H         0.032752        -0.791369        -0.811268
 H        -0.546815        -0.124282         0.727218
 H        -0.336271         0.895669        -0.761215
 H         2.482597         1.833832        -1.070869
 H         1.680205         2.234114         0.409007
 H         4.208507        -0.222773         1.940862
 H         1.628687        -1.112229         1.869653
