19
Iteration:  4399charge 0 multiplicity 1
 C         3.702619        -2.512827        -0.026141
 C         2.988036        -1.252463         0.317827
 O         2.453762        -0.618446        -0.865680
 C         1.573451         0.251205        -0.005733
 C         0.202339         0.115487        -0.534871
 C         2.394766         1.495230        -0.122764
 O         3.665986         1.252686         0.517328
 C         3.489659        -0.060453         1.161301
 C         1.973059        -0.581676         1.180497
 H         2.981434        -3.270666        -0.416827
 H         4.521918        -2.162642        -0.703581
 H         4.243969        -3.008862         0.868763
 H        -0.591276         0.446186         0.221255
 H        -0.022099         0.828330        -1.288323
 H         0.182789        -0.962286        -0.855340
 H         2.395843         1.963445        -1.136203
 H         1.803554         2.307268         0.505746
 H         4.343414        -0.200705         1.829791
 H         1.389415        -0.946468         2.029891
