19
Iteration:  4279
 C         3.517803        -2.653417        -0.022344
 C         3.091066        -1.122218         0.317794
 O         2.510154        -0.594192        -0.907483
 C         1.598655         0.215458        -0.127589
 C         0.279406         0.049826        -0.524435
 C         2.296164         1.510288        -0.013165
 O         3.586609         1.191781         0.526059
 C         3.545448         0.003798         1.121776
 C         2.060403        -0.432371         1.199076
 H         2.713089        -3.412441        -0.107428
 H         3.977811        -2.650493        -1.042802
 H         4.365393        -2.966424         0.680569
 H        -0.117702        -0.219804         0.527189
 H        -0.383508         0.792328        -0.782419
 H         0.352695        -0.781546        -1.234044
 H         2.374948         1.988964        -1.010010
 H         1.869237         2.229461         0.619283
 H         4.129351        -0.177953         2.042891
 H         1.557729        -0.619244         2.113335
