19
Iteration:  2273
 C         3.881312        -2.470096        -0.395016
 C         3.126143        -1.140570         0.110822
 O         2.403470        -0.521099        -0.961044
 C         1.543863         0.187865         0.039030
 C         0.130602         0.256050        -0.634558
 C         2.215113         1.496877         0.247226
 O         3.510265         1.201385         0.836919
 C         3.547081        -0.103217         1.140288
 C         2.131167        -0.822055         1.208186
 H         3.639321        -2.665141        -1.435889
 H         4.912622        -2.282719        -0.204321
 H         3.700613        -3.333981         0.205386
 H         0.249822         0.014913        -1.744196
 H        -0.551683        -0.509945        -0.134528
 H        -0.380196         1.236451        -0.503118
 H         2.412970         2.051702        -0.730809
 H         1.646538         2.037783         1.007440
 H         4.279475        -0.416497         1.998471
 H         1.614459        -1.278256         2.065817
