19
Iteration:  2452charge 0 multiplicity 1
 C         3.751043        -2.509506        -0.152109
 C         3.089627        -1.180529         0.039744
 O         2.461226        -0.406269        -1.069261
 C         1.561636         0.302894        -0.085009
 C         0.158804        -0.042308        -0.427892
 C         2.297168         1.576689         0.210930
 O         3.554167         1.179390         0.808200
 C         3.485587        -0.152356         1.130858
 C         2.100841        -0.644362         1.086454
 H         3.299090        -3.180684        -0.849969
 H         4.729519        -2.317767        -0.671787
 H         3.974394        -3.027557         0.782989
 H        -0.492697         0.486914         0.302017
 H         0.017331         0.459355        -1.412794
 H         0.035191        -1.210296        -0.486819
 H         2.444513         2.237081        -0.692518
 H         1.842485         2.219168         0.942248
 H         4.193327        -0.413089         1.944985
 H         1.423068        -1.224986         1.802879
