19
Iteration:  1549
 C         3.899321        -2.417623        -0.006602
 C         3.012623        -1.224088         0.194560
 O         2.178912        -0.772260        -0.891296
 C         1.484612         0.147992         0.050246
 C         0.050227         0.040470         0.155348
 C         2.211222         1.566407        -0.082352
 O         3.593131         1.265204         0.103459
 C         3.706479        -0.008319         0.836374
 C         2.348771        -0.500067         1.247342
 H         3.384254        -3.315256        -0.346290
 H         4.766735        -2.127355        -0.780727
 H         4.290853        -2.648777         1.012481
 H        -0.371348         1.072008         0.004423
 H        -0.358145        -0.389962        -0.790151
 H        -0.387125        -0.457914         1.023539
 H         2.140658         1.863021        -1.169078
 H         1.996760         2.411781         0.558317
 H         4.708704        -0.179374         1.285498
 H         1.957631        -0.782356         2.171307
