19
Iteration:   311charge 0 multiplicity 1
 C         3.517827        -2.549304         0.072399
 C         3.205314        -1.142230         0.121031
 O         2.176711        -0.882759        -0.818665
 C         1.550455         0.119338         0.204423
 C         0.061171        -0.151902         0.159605
 C         2.076138         1.525416        -0.169728
 O         3.640312         1.425325         0.021626
 C         3.809624         0.209487         0.727929
 C         2.571733        -0.371871         1.283836
 H         3.842828        -2.975786         0.971858
 H         2.532176        -2.990628        -0.136337
 H         4.195394        -2.695369        -0.798742
 H        -0.377163         0.726423        -0.319168
 H        -0.087066        -1.025854        -0.465614
 H        -0.579979        -0.216446         0.993462
 H         1.834510         1.820121        -1.211065
 H         1.857811         2.371923         0.486247
 H         4.787579         0.059543         1.324716
 H         2.467430        -0.822852         2.215447
