19
Iteration:   418charge 0 multiplicity 1
 C         3.955618        -2.438943        -0.123078
 C         3.135084        -1.223864         0.222177
 O         2.040902        -0.902941        -0.700501
 C         1.553525         0.078925         0.132674
 C         0.080133         0.296274         0.121909
 C         2.101745         1.433755        -0.310554
 O         3.508864         1.342052         0.147872
 C         3.693268         0.009790         0.748538
 C         2.440814        -0.544801         1.397005
 H         4.807748        -2.578614         0.523489
 H         3.417012        -3.418555        -0.413611
 H         4.439525        -2.121829        -1.035418
 H        -0.101908         0.231507        -0.955524
 H        -0.535199        -0.472600         0.579200
 H        -0.094353         1.288128         0.535076
 H         2.138208         1.622238        -1.388134
 H         1.717548         2.276367         0.218101
 H         4.774622         0.047987         1.216685
 H         2.151595        -0.650135         2.413550
