19
Iteration:  1398charge 0 multiplicity 1
 C         3.952163        -2.471641        -0.021966
 C         3.121698        -1.175015         0.304783
 O         2.093602        -0.871218        -0.773834
 C         1.505131         0.124449         0.119710
 C        -0.007836         0.128732         0.158341
 C         2.170025         1.458702        -0.273226
 O         3.638000         1.255613        -0.040915
 C         3.774470         0.088431         0.831461
 C         2.298425        -0.438624         1.281389
 H         5.012200        -2.199738         0.044941
 H         3.697780        -3.352876         0.655282
 H         3.713172        -2.927743        -0.958688
 H        -0.609906        -0.672172        -0.368232
 H        -0.430149         0.107522         1.219973
 H        -0.361520         1.122410        -0.161589
 H         1.933451         1.857975        -1.305196
 H         1.817645         2.320390         0.390510
 H         4.659349         0.211724         1.480465
 H         2.137487        -0.612527         2.332587
