19
Iteration:  3339charge 0 multiplicity 1
 C         3.586208        -2.662494        -0.057454
 C         3.143581        -1.223278         0.262371
 O         2.441123        -0.638680        -0.983630
 C         1.655731         0.167684        -0.068253
 C         0.139554         0.078471        -0.599179
 C         2.259156         1.560895         0.059466
 O         3.623147         1.359016         0.645072
 C         3.578111         0.023099         1.184321
 C         2.113305        -0.563877         1.179455
 H         2.806745        -3.166252        -0.688596
 H         4.439532        -2.774317        -0.797529
 H         3.935125        -3.239795         0.854584
 H         0.151626         0.407076        -1.673449
 H        -0.401241        -0.851866        -0.675670
 H        -0.568790         0.771132        -0.060205
 H         2.558557         2.171482        -0.868210
 H         1.488217         2.104978         0.661194
 H         4.206413        -0.091502         2.093284
 H         1.705510        -0.822136         2.166181
