19
Iteration:  1732charge 0 multiplicity 1
 C         3.851039        -2.503801        -0.169880
 C         3.106445        -1.221014         0.145610
 O         2.270055        -0.747407        -0.939184
 C         1.551100         0.135819         0.069017
 C         0.063563         0.119709        -0.046248
 C         2.231255         1.568639        -0.046549
 O         3.537189         1.312074         0.394002
 C         3.627186         0.031463         0.891851
 C         2.287115        -0.579115         1.285331
 H         3.878259        -2.703062        -1.226920
 H         4.906036        -2.485575         0.240666
 H         3.301858        -3.302398         0.401678
 H        -0.201059        -0.839664        -0.534041
 H        -0.464469         0.238776         0.938185
 H        -0.246969         0.892874        -0.750785
 H         2.311839         1.793073        -1.124312
 H         1.598675         2.300253         0.531704
 H         4.503897         0.073426         1.629686
 H         1.929138        -1.027970         2.178811
