19
Iteration:   694
 C         3.728251        -2.605429        -0.027121
 C         3.165260        -1.174984         0.204861
 O         2.163703        -0.773551        -0.812001
 C         1.526027         0.142047         0.125916
 C        -0.001261        -0.101168         0.262821
 C         2.191745         1.549549        -0.181573
 O         3.605248         1.344165        -0.033664
 C         3.737911         0.119279         0.731753
 C         2.433051        -0.334331         1.312092
 H         4.240010        -2.919101         0.882159
 H         2.918124        -3.292281        -0.302559
 H         4.410099        -2.738780        -0.908651
 H        -0.604790         0.498610        -0.496644
 H        -0.196435        -1.239468         0.110119
 H        -0.338136         0.134760         1.288798
 H         2.076042         1.957321        -1.199279
 H         1.899205         2.431798         0.511268
 H         4.752015         0.032624         1.267102
 H         2.214848        -0.535641         2.331778
