19
Iteration:   530charge 0 multiplicity 1
 C         3.469833        -2.635384         0.197363
 C         3.272071        -1.107653         0.066819
 O         2.271096        -0.736722        -0.923053
 C         1.558745         0.077303         0.120940
 C         0.152200        -0.104623         0.169271
 C         2.049308         1.475222         0.073127
 O         3.560836         1.405694        -0.089753
 C         3.792253         0.213179         0.666858
 C         2.556082        -0.420753         1.255825
 H         4.112753        -2.840746         0.993362
 H         2.425749        -2.874067         0.414710
 H         3.526945        -3.264626        -0.698820
 H        -0.124673         0.124341        -0.872504
 H        -0.243560        -1.090580         0.459820
 H        -0.397298         0.603876         0.791939
 H         1.635811         1.980721        -0.781438
 H         1.638206         1.916574         0.949059
 H         4.700752         0.062988         1.106883
 H         2.268320        -0.686050         2.326897
