19
Iteration:  3520charge 0 multiplicity 1
 C         3.623858        -2.598654         0.154972
 C         3.065676        -1.208924         0.183351
 O         2.464418        -0.524634        -1.026903
 C         1.537569         0.164268        -0.139109
 C         0.063092         0.061288        -0.583633
 C         2.286005         1.576300         0.200850
 O         3.744272         1.259018         0.531470
 C         3.567665        -0.049762         1.115975
 C         2.125682        -0.576905         1.119487
 H         2.898580        -3.229958        -0.249149
 H         4.381013        -2.535501        -0.645828
 H         3.919908        -2.845914         1.218374
 H        -0.019816         0.636536        -1.594276
 H        -0.310948        -0.931675        -0.733802
 H        -0.552142         0.648961         0.129318
 H         2.369730         2.145319        -0.676809
 H         1.836479         2.038225         1.095169
 H         4.335670        -0.266844         1.922537
 H         1.626695        -1.219738         1.949842
