19
Iteration:  4719charge 0 multiplicity 1
 C         3.950964        -2.523182        -0.004959
 C         3.108867        -1.249300         0.108195
 O         2.410838        -0.601391        -1.046918
 C         1.559956         0.196867        -0.101167
 C         0.010015         0.297729        -0.420723
 C         2.350975         1.496576         0.164841
 O         3.611874         1.272940         0.691675
 C         3.447921        -0.172107         1.099698
 C         2.027494        -0.645382         1.067735
 H         3.505183        -3.253453        -0.786959
 H         4.885336        -2.368947        -0.514081
 H         4.114840        -2.900158         0.978480
 H        -0.514857         1.281112        -0.307472
 H        -0.054068        -0.011915        -1.612978
 H        -0.617416        -0.399888         0.111485
 H         2.330264         2.142535        -0.731492
 H         1.934371         2.064181         1.032145
 H         4.171701        -0.387299         1.836513
 H         1.457827        -1.129646         1.832105
