19
Iteration:  4829charge 0 multiplicity 1
 C         3.581575        -2.577149        -0.285340
 C         3.160024        -1.147964         0.110685
 O         2.584466        -0.376124        -0.943620
 C         1.564957         0.239709        -0.023842
 C         0.172189        -0.025190        -0.598242
 C         2.271694         1.610030         0.174238
 O         3.494917         1.207984         0.753279
 C         3.546413        -0.100058         1.170698
 C         2.121548        -0.687210         1.206042
 H         2.743461        -3.295213        -0.162352
 H         4.016700        -2.670112        -1.250694
 H         4.226287        -2.910163         0.506275
 H         0.291439        -0.699423        -1.405053
 H        -0.338105        -0.745521         0.065212
 H        -0.376896         0.849997        -0.784409
 H         2.463974         2.039174        -0.824050
 H         1.787018         2.267906         0.941825
 H         4.345432        -0.135126         1.953404
 H         1.604651        -1.148742         2.079235
