19
Iteration:   971charge 0 multiplicity 1
 C         3.770111        -2.518974        -0.027393
 C         3.067838        -1.166307         0.211095
 O         2.166699        -0.768164        -0.783196
 C         1.489708         0.244377         0.176218
 C         0.058990        -0.098826         0.141180
 C         2.161436         1.501330        -0.238333
 O         3.619263         1.278053        -0.011030
 C         3.706379         0.001804         0.780717
 C         2.433755        -0.324119         1.360733
 H         4.823036        -2.371219         0.301702
 H         3.390609        -3.401179         0.547411
 H         3.808131        -2.824891        -1.100757
 H        -0.302949         0.133379        -0.875237
 H        -0.055968        -1.085555         0.570124
 H        -0.448623         0.689768         0.758441
 H         2.144654         1.756128        -1.328020
 H         1.919775         2.431677         0.292586
 H         4.682984        -0.167585         1.384262
 H         2.244718        -0.394921         2.409393
