19
Iteration:  4905
 C         3.953287        -2.433407        -0.157128
 C         3.101927        -1.208859         0.013038
 O         2.433921        -0.517760        -0.998459
 C         1.522064         0.177545        -0.019106
 C         0.061721         0.317976        -0.561564
 C         2.283269         1.509942         0.238377
 O         3.539133         1.190582         0.834001
 C         3.416443        -0.162449         1.092797
 C         2.149634        -0.808796         1.117546
 H         3.540514        -3.165705        -0.921529
 H         4.923631        -2.332461        -0.560136
 H         3.983439        -2.864534         0.844583
 H        -0.592959        -0.465912        -0.184092
 H        -0.483706         1.302595        -0.121720
 H         0.083318         0.213603        -1.633936
 H         2.560309         1.826148        -0.778316
 H         1.681657         2.353929         0.699260
 H         4.281879        -0.501299         1.719626
 H         1.640195        -1.239812         2.005603
