19
Iteration:   641
 C         4.099574        -2.406283        -0.013364
 C         3.153424        -1.150089         0.090311
 O         2.010258        -1.050839        -0.820446
 C         1.495295         0.105890         0.167657
 C        -0.050525         0.405648         0.273905
 C         2.122969         1.374457        -0.249264
 O         3.545520         1.297074         0.078691
 C         3.714576         0.045181         0.725521
 C         2.432680        -0.522037         1.317219
 H         4.524449        -2.739313         0.961441
 H         3.598757        -3.229152        -0.445651
 H         4.979118        -2.177334        -0.697410
 H        -0.292659         1.290018        -0.324166
 H        -0.591210        -0.574698         0.252904
 H        -0.325227         0.823632         1.272331
 H         2.156684         1.481889        -1.367878
 H         1.730582         2.367746         0.138665
 H         4.748849        -0.069698         1.198347
 H         1.996990        -0.766301         2.237470
