19
Iteration:  4862
 C         3.677141        -2.502817        -0.139065
 C         3.118304        -1.162106         0.057125
 O         2.597209        -0.495086        -1.114057
 C         1.601836         0.165264        -0.121257
 C         0.193694         0.104241        -0.472326
 C         2.267222         1.573724         0.344196
 O         3.520463         1.237749         0.740937
 C         3.459323        -0.098659         1.124607
 C         2.089570        -0.744471         1.053190
 H         2.895055        -3.271374        -0.249387
 H         4.367786        -2.708749        -0.902140
 H         4.256057        -2.610709         0.769984
 H        -0.111971        -0.728869        -1.058325
 H        -0.331846         0.179047         0.513378
 H        -0.172680         0.859284        -1.105746
 H         2.110315         2.413383        -0.332391
 H         1.667261         1.925437         1.254671
 H         4.045187        -0.205627         2.085759
 H         1.565777        -1.157348         1.945881
