19
Iteration:  1378charge 0 multiplicity 1
 C         3.827310        -2.500112        -0.026642
 C         3.232412        -1.146957         0.189436
 O         2.179789        -0.950606        -0.740931
 C         1.496487         0.099504         0.191670
 C        -0.005894         0.203578         0.101983
 C         2.171724         1.363565        -0.235128
 O         3.549341         1.296205         0.005375
 C         3.665097         0.108501         0.770027
 C         2.447921        -0.361492         1.393532
 H         4.962859        -2.418818         0.161074
 H         3.256740        -3.270344         0.525683
 H         3.658501        -2.621017        -1.102972
 H        -0.319199        -0.375287        -0.797996
 H        -0.540995        -0.306487         0.918404
 H        -0.348101         1.241410         0.081981
 H         2.016651         1.446033        -1.330709
 H         1.785140         2.283294         0.221857
 H         4.662241         0.348254         1.153364
 H         2.224900        -0.470566         2.428363
