19
Iteration:  1992
 C         3.866249        -2.508532        -0.136227
 C         3.066413        -1.270510         0.166554
 O         2.375047        -0.550178        -1.029355
 C         1.492556         0.213786         0.015869
 C        -0.007839         0.056753        -0.301320
 C         2.259184         1.571353         0.162270
 O         3.642264         1.187602         0.464641
 C         3.616650        -0.051912         1.105579
 C         2.199704        -0.534825         1.101674
 H         3.825615        -2.913261        -1.167720
 H         4.889257        -2.177829         0.111135
 H         3.485718        -3.327024         0.532050
 H        -0.220347        -0.794342        -0.968416
 H        -0.528165        -0.181745         0.656802
 H        -0.570216         0.936653        -0.544872
 H         2.257894         2.147133        -0.766433
 H         1.826849         2.073612         1.009921
 H         4.281606        -0.210998         1.904046
 H         1.613072        -0.866653         2.003768
