19
Iteration:  2755
 C         3.702550        -2.533174        -0.032504
 C         3.164141        -1.209810         0.081137
 O         2.456259        -0.639776        -1.011161
 C         1.556656         0.129209        -0.056255
 C         0.134025         0.252001        -0.551438
 C         2.251375         1.541597         0.165924
 O         3.458896         1.384686         0.753813
 C         3.598543        -0.138339         1.099931
 C         2.223622        -0.735421         1.129883
 H         2.820347        -3.169251        -0.147575
 H         4.297503        -2.827680        -0.929652
 H         4.395902        -2.811888         0.816178
 H        -0.569070         0.493182         0.271242
 H         0.051654         1.035302        -1.264976
 H        -0.232665        -0.754196        -0.985774
 H         2.390169         1.998351        -0.815682
 H         1.560790         2.270403         0.665804
 H         4.453322        -0.059889         1.741006
 H         1.670547        -1.168603         1.850107
