19
Iteration:   948charge 0 multiplicity 1
 C         3.634546        -2.507316         0.129479
 C         3.041699        -1.123480         0.189495
 O         2.127453        -0.688707        -0.875762
 C         1.576164         0.203474         0.128616
 C         0.134577        -0.261479         0.232651
 C         2.255053         1.590293        -0.131639
 O         3.637644         1.265823        -0.029765
 C         3.720378         0.134824         0.708664
 C         2.388633        -0.431218         1.224142
 H         4.693198        -2.466060         0.599506
 H         3.114026        -3.295851         0.674442
 H         3.721541        -2.918229        -0.928052
 H        -0.095338        -0.515064        -0.803347
 H         0.116003        -1.087002         0.930844
 H        -0.672661         0.479133         0.527866
 H         2.164155         2.051939        -1.143185
 H         2.088893         2.418287         0.618550
 H         4.722584         0.052041         1.123818
 H         1.936449        -0.613363         2.206372
