19
Iteration:   794
 C         3.854449        -2.523900        -0.017007
 C         3.181108        -1.199001         0.127408
 O         2.099141        -0.890366        -0.787354
 C         1.552286         0.114514         0.164323
 C         0.008688         0.228484         0.203148
 C         2.154529         1.426793        -0.146838
 O         3.538712         1.324304         0.041463
 C         3.749167         0.106221         0.723840
 C         2.432605        -0.467563         1.261575
 H         4.766773        -2.480319         0.670556
 H         3.234279        -3.334968         0.241198
 H         4.204692        -2.708742        -1.063296
 H        -0.366052         0.268334        -0.822603
 H        -0.483964        -0.732718         0.485206
 H        -0.256835         1.070518         0.877431
 H         2.059652         1.585422        -1.239621
 H         1.663653         2.241888         0.389629
 H         4.570346         0.318000         1.402273
 H         2.249974        -0.807484         2.297734
