19
Iteration:  2975charge 0 multiplicity 1
 C         3.498052        -2.705615        -0.057329
 C         3.276958        -1.242584         0.189104
 O         2.577377        -0.509570        -0.881497
 C         1.587238         0.130727        -0.050155
 C         0.148033         0.145578        -0.600279
 C         2.223938         1.456973         0.082369
 O         3.537308         1.299999         0.532837
 C         3.537412         0.012703         1.196045
 C         2.190530        -0.523045         1.189875
 H         2.626340        -2.986589        -0.461944
 H         4.361099        -2.740687        -0.765541
 H         3.663048        -3.201485         0.849634
 H         0.108004        -0.075340        -1.678889
 H        -0.448580        -0.629249         0.072477
 H        -0.431012         1.078561        -0.584275
 H         2.168522         1.961102        -0.890255
 H         1.668698         2.169772         0.761428
 H         4.358130        -0.143569         1.872830
 H         1.607877        -0.776048         2.128709
