19
Iteration:  1607
 C         3.843949        -2.484856        -0.188917
 C         3.130216        -1.202154         0.117460
 O         2.214933        -0.837918        -0.827449
 C         1.532682         0.126178         0.093313
 C         0.072767         0.186614        -0.011970
 C         2.145248         1.471995        -0.114981
 O         3.514404         1.393030         0.334999
 C         3.705330         0.025719         0.853500
 C         2.402631        -0.568089         1.302946
 H         3.850939        -2.943500         0.851330
 H         3.296517        -3.148167        -0.867533
 H         4.896334        -2.289999        -0.448275
 H        -0.272567         0.451328        -1.060808
 H        -0.332082        -0.813969         0.271321
 H        -0.290075         0.990633         0.728995
 H         2.022405         1.482021        -1.223754
 H         1.644854         2.370844         0.252470
 H         4.538392        -0.248037         1.519887
 H         2.027335        -0.803903         2.350831
