19
Iteration:  2402
 C         3.540719        -2.576805        -0.320325
 C         3.331121        -1.207253         0.106755
 O         2.573409        -0.468651        -0.978727
 C         1.675396         0.103073        -0.031073
 C         0.220550         0.124809        -0.630288
 C         2.047551         1.517467         0.317617
 O         3.492552         1.310140         0.686468
 C         3.538514        -0.061089         1.210820
 C         2.169978        -0.662418         1.226344
 H         2.526675        -3.127885        -0.403121
 H         3.755918        -2.690331        -1.373187
 H         4.267112        -3.121320         0.315628
 H        -0.203269         1.126453        -0.604224
 H         0.247770        -0.288083        -1.633646
 H        -0.273617        -0.387589         0.103619
 H         1.865155         2.212426        -0.461433
 H         1.426698         1.912941         1.197083
 H         4.361517        -0.192685         2.028165
 H         1.746757        -1.157624         2.071518
