19
Iteration:  1064
 C         3.796249        -2.456409         0.188616
 C         3.067222        -1.098105         0.138118
 O         2.038316        -0.778838        -0.897974
 C         1.562669         0.162055         0.111484
 C         0.038895        -0.103378         0.334202
 C         2.267403         1.517245        -0.246360
 O         3.655390         1.272813        -0.078675
 C         3.727460         0.058101         0.728134
 C         2.374288        -0.390098         1.252279
 H         4.013778        -2.740006         1.248632
 H         3.185842        -3.217576        -0.249037
 H         4.752407        -2.462465        -0.356622
 H        -0.552767         0.485752        -0.371548
 H        -0.073671        -1.217378         0.363039
 H        -0.211828         0.341362         1.308238
 H         2.087179         1.753938        -1.272508
 H         1.870818         2.281982         0.376054
 H         4.631868        -0.051298         1.256216
 H         2.227782        -0.753410         2.334595
