19
Iteration:  3305
 C         3.694685        -2.529757         0.142159
 C         3.083766        -1.201593         0.114065
 O         2.397393        -0.610573        -1.065748
 C         1.605378         0.228212        -0.098970
 C         0.175688         0.156430        -0.493001
 C         2.335520         1.518779        -0.038475
 O         3.524256         1.268778         0.786488
 C         3.540206        -0.126752         1.057671
 C         2.127937        -0.613732         1.106617
 H         2.908690        -3.233439         0.357850
 H         4.412658        -2.574615        -0.765751
 H         4.296890        -2.665885         1.122297
 H         0.132553         0.958888        -1.283455
 H         0.019637        -0.821123        -0.791546
 H        -0.412837         0.498787         0.370434
 H         2.751739         1.820089        -1.057466
 H         1.557876         2.213602         0.391004
 H         4.312057        -0.262545         1.771328
 H         1.563252        -1.047487         1.989224
