19
Iteration:  3974charge 0 multiplicity 1
 C         3.742731        -2.509569         0.145035
 C         3.076178        -1.193627         0.223480
 O         2.309181        -0.752749        -0.977064
 C         1.625188         0.250460        -0.131526
 C         0.177248         0.207316        -0.477995
 C         2.417393         1.567031        -0.076547
 O         3.572768         1.173321         0.536726
 C         3.480800        -0.062896         1.154347
 C         2.128753        -0.532359         1.178991
 H         3.126596        -3.337255        -0.374892
 H         4.676236        -2.400919        -0.435637
 H         4.044773        -2.824658         1.200274
 H        -0.224525        -0.818738        -0.780267
 H        -0.436100         0.501003         0.356877
 H         0.072091         0.937469        -1.262775
 H         2.533338         1.935202        -1.125910
 H         1.819128         2.335113         0.422547
 H         4.166619        -0.437550         1.964185
 H         1.380337        -0.743846         2.006700
