19
Iteration:  3976
 C         3.734958        -2.491569         0.123087
 C         3.087570        -1.201135         0.227557
 O         2.306984        -0.754699        -0.972865
 C         1.618388         0.252657        -0.124944
 C         0.183501         0.203086        -0.484646
 C         2.419381         1.541915        -0.081067
 O         3.574482         1.176067         0.536746
 C         3.471707        -0.056791         1.163487
 C         2.135873        -0.541848         1.181352
 H         3.070705        -3.347050        -0.314333
 H         4.632023        -2.326780        -0.404134
 H         4.075928        -2.873003         1.181015
 H        -0.225829        -0.820747        -0.780000
 H        -0.405317         0.583714         0.358106
 H         0.101431         0.936197        -1.317360
 H         2.517096         1.945203        -1.103830
 H         1.817220         2.350298         0.426853
 H         4.152542        -0.396276         1.962044
 H         1.393575        -0.679557         2.026351
