19
Iteration:  3752charge 0 multiplicity 1
 C         3.651708        -2.701276         0.003029
 C         3.045535        -1.256511         0.270358
 O         2.458361        -0.597800        -0.910566
 C         1.620492         0.255759        -0.113962
 C         0.124293         0.095000        -0.450246
 C         2.352385         1.617324        -0.035596
 O         3.593364         1.285670         0.523589
 C         3.544491         0.003721         1.137560
 C         2.106354        -0.560608         1.157338
 H         3.089920        -3.236056        -0.722270
 H         4.737760        -2.461624        -0.355415
 H         3.850237        -3.282603         0.900363
 H        -0.373479         0.830296         0.143089
 H         0.095251         0.344845        -1.560754
 H        -0.325075        -0.893638        -0.200116
 H         2.474658         1.955123        -1.096684
 H         1.704743         2.190805         0.669736
 H         4.207590        -0.301790         1.968245
 H         1.421322        -0.989997         1.941578
