19
Iteration:  3256charge 0 multiplicity 1
 C         3.838907        -2.461525         0.032239
 C         3.092619        -1.176732         0.249331
 O         2.540405        -0.703287        -1.017946
 C         1.677696         0.109810        -0.185177
 C         0.103716         0.326465        -0.460638
 C         2.299409         1.488669         0.053065
 O         3.582138         1.125875         0.533358
 C         3.395411        -0.060018         1.223343
 C         1.954761        -0.574385         1.109923
 H         3.167043        -3.335746        -0.064398
 H         4.400693        -2.226099        -0.811723
 H         4.521259        -2.673672         0.806162
 H        -0.084666         1.062800        -1.195841
 H        -0.403535        -0.683643        -0.573412
 H        -0.244055         0.777100         0.470108
 H         2.470686         2.044797        -0.853392
 H         1.588357         2.087406         0.775713
 H         4.028033        -0.159864         2.152208
 H         1.300951        -0.896625         1.892988
