19
Iteration:   470
 C         3.931180        -2.358254        -0.086391
 C         3.007625        -1.231597         0.215273
 O         2.028236        -0.928560        -0.802718
 C         1.519803         0.197776         0.112748
 C         0.041052         0.092813         0.276478
 C         2.253041         1.458619        -0.297570
 O         3.647175         1.248959         0.078682
 C         3.661204         0.040955         0.810776
 C         2.376826        -0.379731         1.281923
 H         4.462236        -2.726275         0.833207
 H         3.464760        -3.263565        -0.424544
 H         4.691858        -2.010953        -0.759596
 H        -0.476090         0.688474        -0.478290
 H        -0.209514        -0.964853         0.128966
 H        -0.163675         0.506347         1.276274
 H         2.455493         1.558912        -1.384923
 H         1.856547         2.424021         0.054238
 H         4.618157        -0.063498         1.410812
 H         2.039857        -0.535500         2.273727
