19
Iteration:  3616charge 0 multiplicity 1
 C         3.858378        -2.435190        -0.020976
 C         2.901819        -1.249959         0.214052
 O         2.431149        -0.587912        -0.941836
 C         1.634585         0.221356        -0.102781
 C         0.166056         0.198530        -0.455376
 C         2.401412         1.515764        -0.073341
 O         3.591268         1.179311         0.626004
 C         3.437538        -0.146022         1.134665
 C         2.032435        -0.575725         1.193312
 H         3.445418        -3.504049        -0.317436
 H         4.528379        -2.411642        -0.847438
 H         4.326823        -2.599466         1.002222
 H        -0.147262         0.150645        -1.506076
 H        -0.344864        -0.659882        -0.042493
 H        -0.311172         1.081783        -0.093236
 H         2.683482         1.719283        -1.082286
 H         1.827017         2.276472         0.527166
 H         4.231462        -0.522822         1.828504
 H         1.264204        -0.741459         2.030013
