19
Iteration:   860charge 0 multiplicity 1
 C         3.862002        -2.403883        -0.028573
 C         3.069072        -1.213789         0.244186
 O         2.062493        -0.882081        -0.744747
 C         1.478243         0.157132         0.107741
 C        -0.071608         0.055529         0.241906
 C         2.248768         1.494821        -0.266209
 O         3.691857         1.293339        -0.033366
 C         3.732647         0.034394         0.682207
 C         2.469527        -0.391074         1.365109
 H         4.102057        -2.826537         1.002847
 H         3.459757        -3.074168        -0.702270
 H         4.822547        -2.085222        -0.491411
 H        -0.699791         0.611252        -0.452868
 H        -0.351395        -0.987582         0.066535
 H        -0.363641         0.320959         1.294873
 H         2.071775         1.719229        -1.316558
 H         1.869246         2.292159         0.295470
 H         4.509372        -0.147005         1.301031
 H         2.091459        -0.610142         2.395823
