19
Iteration:  3451charge 0 multiplicity 1
 C         3.804646        -2.531056        -0.008573
 C         3.243459        -1.113145         0.214465
 O         2.476290        -0.731574        -1.016690
 C         1.592758         0.135710        -0.096642
 C         0.047636         0.355530        -0.515585
 C         2.336164         1.472372        -0.113722
 O         3.523354         1.229495         0.719679
 C         3.449904        -0.044845         1.201148
 C         2.088588        -0.628404         1.201952
 H         2.752618        -3.056767        -0.133685
 H         4.148583        -2.544216        -1.023664
 H         4.412656        -3.002952         0.745259
 H        -0.173777         1.206730        -1.098483
 H        -0.535923        -0.552979        -0.898952
 H        -0.358213         0.595391         0.476829
 H         2.677588         1.427392        -1.157290
 H         1.749112         2.364546         0.270575
 H         3.985231        -0.442558         2.032213
 H         1.646908        -1.120993         2.064996
