19
Iteration:  2466charge 0 multiplicity 1
 C         3.858796        -2.414132        -0.143547
 C         3.019847        -1.174010         0.040979
 O         2.512181        -0.499300        -1.079471
 C         1.627068         0.215004        -0.106503
 C         0.098283         0.114524        -0.371547
 C         2.317409         1.604724         0.216280
 O         3.582569         1.216337         0.769683
 C         3.445726        -0.208643         1.151177
 C         2.028307        -0.727727         1.027461
 H         3.290269        -3.168226        -0.896429
 H         4.916616        -2.179921        -0.403739
 H         3.892749        -2.807042         0.914775
 H        -0.483840         0.023584         0.586359
 H        -0.519324         0.667833        -1.145327
 H        -0.000444        -0.960212        -0.636805
 H         2.559872         2.075424        -0.716375
 H         1.579805         2.209730         0.884103
 H         4.205917        -0.580675         1.954811
 H         1.352032        -1.067736         1.758380
