19
Iteration:   639
 C         4.105161        -2.399328        -0.026516
 C         3.174283        -1.161676         0.099560
 O         2.018549        -1.051227        -0.816489
 C         1.482142         0.101209         0.167353
 C        -0.044343         0.411839         0.293038
 C         2.126805         1.385831        -0.261481
 O         3.544042         1.287031         0.081573
 C         3.702753         0.026999         0.741954
 C         2.426875        -0.499906         1.284878
 H         4.497746        -2.695501         0.913443
 H         3.552829        -3.290359        -0.393328
 H         4.985231        -2.140856        -0.663154
 H        -0.359676         1.264379        -0.377061
 H        -0.563965        -0.588662         0.235707
 H        -0.317373         0.847645         1.268677
 H         2.115325         1.469448        -1.358257
 H         1.726703         2.403432         0.176511
 H         4.671474        -0.087661         1.201611
 H         2.042186        -0.754882         2.270609
