19
Iteration:  4422charge 0 multiplicity 1
 C         3.593744        -2.556073         0.024262
 C         3.077848        -1.177348         0.180566
 O         2.484730        -0.577718        -0.926849
 C         1.529827         0.196484        -0.058766
 C         0.147252         0.028447        -0.625578
 C         2.331019         1.560125         0.026304
 O         3.613820         1.221125         0.581032
 C         3.549499        -0.075943         1.133670
 C         2.164030        -0.500727         1.240583
 H         2.649552        -3.203323         0.027411
 H         4.203614        -2.678758        -0.860873
 H         4.188196        -2.918438         0.904280
 H        -0.475496         0.840051        -0.232683
 H         0.083111         0.196207        -1.669657
 H        -0.212131        -0.993698        -0.341203
 H         2.567123         2.002486        -0.961672
 H         1.897198         2.476203         0.599457
 H         4.186209        -0.219217         1.980248
 H         1.672398        -0.897240         2.154414
