19
Iteration:   483charge 0 multiplicity 1
 C         3.868041        -2.515401         0.041034
 C         3.036313        -1.195208         0.113439
 O         2.078070        -0.807469        -0.861163
 C         1.595198         0.181505         0.138566
 C         0.116899         0.034025         0.309038
 C         2.265226         1.499838        -0.297820
 O         3.600677         1.282778         0.059958
 C         3.674229         0.042424         0.733661
 C         2.314283        -0.360278         1.321927
 H         4.361590        -2.541874         0.965275
 H         3.411418        -3.398581        -0.403790
 H         4.569618        -2.312163        -0.678595
 H        -0.467768         0.516646        -0.479960
 H        -0.081662        -1.016576         0.171863
 H        -0.409521         0.176003         1.244178
 H         1.851582         1.684895        -1.276914
 H         1.931922         2.229646         0.412770
 H         4.663135        -0.063500         1.346631
 H         1.909525        -0.527450         2.297963
