19
Iteration:  1785charge 0 multiplicity 1
 C         3.921739        -2.326315        -0.169199
 C         3.049792        -1.180813         0.125163
 O         2.252242        -0.713650        -0.986793
 C         1.582303         0.116125         0.043274
 C         0.049110         0.174276        -0.028058
 C         2.227813         1.546023        -0.037734
 O         3.659908         1.264796         0.402899
 C         3.558527        -0.101671         1.012876
 C         2.193807        -0.670900         1.246923
 H         3.363475        -3.258973        -0.388703
 H         4.445946        -2.183666        -1.093976
 H         4.608173        -2.535256         0.679648
 H        -0.300225        -0.653933         0.613590
 H        -0.544272         1.141125         0.138332
 H        -0.041807        -0.212749        -1.074236
 H         2.045357         1.762815        -1.073276
 H         1.800307         2.248323         0.618066
 H         4.480397        -0.360337         1.624258
 H         1.598684        -0.852841         2.091480
