19
Iteration:  1603charge 0 multiplicity 1
 C         3.869695        -2.452586        -0.178859
 C         3.167638        -1.252918         0.155198
 O         2.200386        -0.851893        -0.837495
 C         1.532954         0.129378         0.133930
 C         0.063069         0.234905        -0.027992
 C         2.151359         1.454724        -0.133440
 O         3.502951         1.390122         0.337902
 C         3.678900         0.026754         0.825353
 C         2.415565        -0.572723         1.298129
 H         3.750423        -3.014796         0.756710
 H         3.216467        -3.070553        -0.896323
 H         4.930760        -2.253742        -0.316643
 H        -0.347482         0.551293        -0.988126
 H        -0.319639        -0.764433         0.147336
 H        -0.261679         0.876586         0.771199
 H         1.946230         1.542271        -1.238511
 H         1.682184         2.343059         0.293737
 H         4.584938        -0.140182         1.487915
 H         2.060174        -0.898788         2.220712
