19
Iteration:  3809charge 0 multiplicity 1
 C         3.850592        -2.611713         0.200123
 C         3.080076        -1.267004         0.177439
 O         2.388578        -0.795337        -1.090333
 C         1.596671         0.243121        -0.056561
 C         0.082244         0.356908        -0.440584
 C         2.317697         1.538507         0.004837
 O         3.592608         1.302201         0.528445
 C         3.490401        -0.096982         1.117310
 C         2.087593        -0.595761         1.141933
 H         3.329257        -3.590533         0.217970
 H         4.488489        -2.672149        -0.702617
 H         4.447995        -2.568755         1.078696
 H        -0.626949         0.131608         0.350187
 H        -0.184492         1.461351        -0.624421
 H        -0.031669        -0.174525        -1.408315
 H         2.445964         2.016581        -1.048248
 H         1.809584         2.385809         0.556445
 H         4.082960        -0.431371         1.929944
 H         1.526325        -0.883952         2.017118
