19
Iteration:  3916charge 0 multiplicity 1
 C         3.536170        -2.626481         0.244501
 C         3.136711        -1.127878         0.201135
 O         2.472452        -0.676240        -0.974660
 C         1.703298         0.187788        -0.093301
 C         0.201408         0.189573        -0.451352
 C         2.253344         1.525309        -0.031133
 O         3.620348         1.293037         0.414566
 C         3.536312        -0.021780         1.117291
 C         2.082242        -0.591723         1.137613
 H         2.790972        -3.098346        -0.375275
 H         4.622666        -2.842637        -0.265989
 H         3.570230        -3.011679         1.254002
 H         0.002577        -0.560728        -1.136490
 H        -0.364697         0.087077         0.505441
 H        -0.325409         1.058592        -0.860314
 H         2.317900         2.030503        -0.995657
 H         1.798986         2.004446         0.813333
 H         4.283271        -0.183626         1.836687
 H         1.484053        -1.170053         1.797804
