19
Iteration:  4400
 C         3.695559        -2.515419        -0.027361
 C         2.993045        -1.249545         0.326459
 O         2.454457        -0.611659        -0.867505
 C         1.580434         0.253537        -0.003068
 C         0.190739         0.108254        -0.538106
 C         2.385926         1.506554        -0.122921
 O         3.672944         1.252018         0.523314
 C         3.503199        -0.061317         1.156849
 C         1.971508        -0.586126         1.178175
 H         2.971958        -3.297136        -0.393674
 H         4.477405        -2.156882        -0.671646
 H         4.240071        -3.000657         0.846022
 H        -0.592127         0.430326         0.183902
 H         0.027668         0.812689        -1.327909
 H         0.154855        -0.970151        -0.827569
 H         2.376041         1.936958        -1.147899
 H         1.790467         2.295288         0.499818
 H         4.352009        -0.209517         1.800673
 H         1.371085        -0.961569         2.028467
