19
Iteration:   216charge 0 multiplicity 1
 C         4.002813        -2.515380        -0.136552
 C         3.076171        -1.252578         0.183348
 O         2.096124        -0.891202        -0.754289
 C         1.505946         0.167020         0.271964
 C         0.023971         0.187147         0.153582
 C         2.199097         1.473872        -0.214950
 O         3.601448         1.339073         0.100201
 C         3.684613         0.088526         0.733270
 C         2.339246        -0.481444         1.334033
 H         4.906745        -2.597175         0.479717
 H         3.430354        -3.425629        -0.039666
 H         4.322020        -2.280963        -1.236146
 H        -0.267610        -0.031156        -0.961335
 H        -0.483316        -0.681010         0.655906
 H        -0.600799         1.119271         0.326903
 H         2.063035         1.484088        -1.332571
 H         1.824874         2.451371         0.184612
 H         4.684203        -0.172388         1.232051
 H         2.018292        -0.448582         2.373556
