19
Iteration:  3111charge 0 multiplicity 1
 C         3.796488        -2.501878         0.064676
 C         3.051344        -1.240341         0.170214
 O         2.271210        -0.726379        -0.963615
 C         1.572584         0.202105        -0.060416
 C         0.182460         0.199147        -0.710958
 C         2.322240         1.484751         0.092664
 O         3.622333         1.306602         0.729883
 C         3.513329        -0.073382         1.077240
 C         2.143374        -0.584297         1.175240
 H         3.119206        -3.334569        -0.174086
 H         4.417643        -2.450658        -0.767177
 H         4.439919        -2.751929         0.911263
 H         0.050805         1.222657        -1.120053
 H         0.092924        -0.591835        -1.366626
 H        -0.569136         0.151410         0.110890
 H         2.634897         2.018824        -0.830447
 H         1.759862         2.302139         0.533297
 H         4.271270        -0.157009         1.848922
 H         1.549167        -0.934592         2.013711
