19
Iteration:   705charge 0 multiplicity 1
 C         3.602526        -2.552050         0.018138
 C         3.086943        -1.188123         0.206812
 O         2.259776        -0.701184        -0.824782
 C         1.556185         0.154621         0.108176
 C         0.066217        -0.168543         0.307659
 C         2.128459         1.569517        -0.154167
 O         3.654559         1.309335        -0.096489
 C         3.767411         0.132414         0.758366
 C         2.442886        -0.389881         1.239579
 H         4.330068        -2.944940         0.739091
 H         2.798651        -3.284555        -0.044070
 H         4.190602        -2.343261        -0.917876
 H        -0.554112         0.246007        -0.553537
 H        -0.066955        -1.339160         0.213912
 H        -0.374883         0.221432         1.251480
 H         1.909613         1.856366        -1.196816
 H         1.671783         2.235518         0.673106
 H         4.551228         0.082255         1.619991
 H         2.160595        -0.554679         2.233825
