19
Iteration:  4657
 C         3.518247        -2.617971        -0.148770
 C         3.147934        -1.215267         0.149728
 O         2.549984        -0.470473        -0.936466
 C         1.565446         0.222270        -0.029566
 C         0.102072         0.005582        -0.608853
 C         2.299039         1.632644         0.096501
 O         3.577863         1.275982         0.687806
 C         3.576963        -0.074420         1.233237
 C         2.176983        -0.645683         1.144132
 H         2.700966        -3.344241        -0.065445
 H         4.160464        -2.604950        -1.057404
 H         4.299608        -2.871440         0.602867
 H        -0.423677        -0.224862         0.339226
 H        -0.355777         0.807760        -1.074248
 H         0.153908        -0.744209        -1.425176
 H         2.224811         2.017745        -0.950884
 H         1.773323         2.393533         0.721822
 H         4.220007        -0.200908         2.078162
 H         1.618964        -1.197643         1.897047
