19
Iteration:  4641
 C         3.583385        -2.581505        -0.017775
 C         3.115193        -1.148386         0.113202
 O         2.561860        -0.491356        -1.016657
 C         1.647606         0.226961        -0.129895
 C         0.237698         0.006993        -0.469545
 C         2.236882         1.569656         0.165240
 O         3.562361         1.253967         0.702808
 C         3.498674        -0.101687         1.071032
 C         2.083993        -0.588308         1.104823
 H         2.620381        -3.208793         0.109782
 H         3.953115        -2.767035        -1.027739
 H         4.271247        -3.036141         0.708424
 H        -0.418505        -0.576965         0.158941
 H        -0.287067         1.056035        -0.591605
 H         0.236751        -0.614323        -1.374386
 H         2.555674         2.196307        -0.655376
 H         1.671350         2.087152         0.933454
 H         4.189790        -0.364536         1.914458
 H         1.437859        -0.972385         1.916756
