19
Iteration:  2146
 C         3.990732        -2.342791        -0.256357
 C         3.097708        -1.196697         0.051055
 O         2.365025        -0.659095        -1.026496
 C         1.539334         0.156115        -0.026579
 C         0.112586         0.283377        -0.407308
 C         2.263399         1.502512         0.132012
 O         3.548719         1.216753         0.812261
 C         3.522781        -0.215360         1.093698
 C         2.044253        -0.729566         1.160055
 H         5.022507        -2.084871         0.086028
 H         3.650600        -3.402912         0.133657
 H         3.900250        -2.428799        -1.414982
 H        -0.358259         1.162143         0.051625
 H        -0.032247         0.372635        -1.487021
 H        -0.422850        -0.616043        -0.040188
 H         2.336102         2.019081        -0.848617
 H         1.789415         2.254951         0.833445
 H         4.030197        -0.285656         2.130842
 H         1.661563        -0.818097         2.145205
