19
Iteration:  2653charge 0 multiplicity 1
 C         3.835382        -2.493685        -0.110494
 C         3.059833        -1.214033         0.108008
 O         2.404431        -0.578041        -0.991892
 C         1.618403         0.193060        -0.007704
 C         0.168476         0.207124        -0.531670
 C         2.207044         1.541032         0.177946
 O         3.527338         1.296320         0.754571
 C         3.559351        -0.158190         1.078296
 C         2.126508        -0.692224         1.087760
 H         3.396317        -3.152267        -0.877744
 H         4.867368        -2.356967        -0.336423
 H         3.876232        -3.076668         0.786462
 H         0.318917         0.839607        -1.438476
 H        -0.303144        -0.807657        -0.766323
 H        -0.597382         0.732277         0.053783
 H         2.274015         1.955927        -0.791052
 H         1.518479         2.050751         0.873033
 H         4.267544        -0.384053         1.867440
 H         1.622720        -1.290292         1.923609
