19
Iteration:   290charge 0 multiplicity 1
 C         3.820166        -2.573276         0.044141
 C         3.143357        -1.249845         0.158937
 O         2.104799        -0.768341        -0.798625
 C         1.555384         0.173794         0.157737
 C         0.039373         0.054157         0.170397
 C         2.176961         1.439598        -0.204788
 O         3.526392         1.345380         0.043018
 C         3.761293         0.093757         0.684004
 C         2.441509        -0.413141         1.307318
 H         4.222248        -2.704411         1.006079
 H         3.102490        -3.357746        -0.153898
 H         4.634403        -2.532904        -0.751813
 H        -0.503705         0.974479        -0.091989
 H        -0.242063        -0.911442        -0.234250
 H        -0.353076         0.021721         1.180827
 H         2.016897         1.647739        -1.284959
 H         1.724534         2.291133         0.310190
 H         4.855537         0.033673         1.065686
 H         2.228901        -0.401236         2.331396
