19
Iteration:  2362
 C         3.818151        -2.510322        -0.150226
 C         3.096411        -1.139386         0.043334
 O         2.455118        -0.436944        -1.055753
 C         1.569101         0.239354        -0.093775
 C         0.126279         0.140702        -0.527010
 C         2.211880         1.579957         0.262181
 O         3.577829         1.201533         0.789340
 C         3.502599        -0.228392         1.166544
 C         2.121121        -0.761821         1.112262
 H         3.362623        -3.453647        -0.043462
 H         4.281875        -2.435221        -1.151012
 H         4.662462        -2.471917         0.537769
 H        -0.279964         1.024502        -1.090081
 H        -0.183473        -0.788891        -1.062513
 H        -0.498464         0.064875         0.441360
 H         2.371914         2.241984        -0.676448
 H         1.714955         2.219488         1.006360
 H         4.257468        -0.573812         1.894444
 H         1.488222        -1.301170         1.766609
