19
Iteration:  4085
 C         3.641266        -2.714293         0.176224
 C         3.095575        -1.162073         0.160192
 O         2.495321        -0.545107        -1.076250
 C         1.637744         0.202342        -0.076535
 C         0.216887         0.155840        -0.438486
 C         2.222163         1.571010        -0.000022
 O         3.579206         1.270799         0.591854
 C         3.522673        -0.063261         1.078631
 C         2.096837        -0.614247         1.119643
 H         2.785887        -3.410089        -0.020809
 H         4.330456        -3.016335        -0.531792
 H         4.059026        -2.774000         1.226248
 H        -0.361728         0.772534         0.296064
 H         0.180415         0.636307        -1.398147
 H        -0.254419        -0.835809        -0.522465
 H         2.475170         2.127507        -0.896535
 H         1.851947         2.156201         0.786541
 H         4.254189        -0.301817         1.823167
 H         1.344390        -0.868994         1.862141
