19
Iteration:  3870charge 0 multiplicity 1
 C         3.601034        -2.602113         0.039437
 C         3.113782        -1.208449         0.292224
 O         2.367964        -0.649637        -0.867085
 C         1.552893         0.249771        -0.052544
 C         0.219700         0.081516        -0.538642
 C         2.366139         1.569976        -0.082600
 O         3.645812         1.282131         0.484611
 C         3.523790        -0.076956         1.106736
 C         2.106856        -0.516571         1.256882
 H         2.727101        -3.234444         0.122118
 H         4.067779        -2.729051        -1.020037
 H         4.377695        -2.817000         0.801190
 H         0.116165        -0.965609        -0.794183
 H        -0.561462         0.578164         0.041364
 H         0.100428         0.536183        -1.549902
 H         2.584688         1.775498        -1.110812
 H         1.860492         2.345271         0.517288
 H         4.324852        -0.242425         1.858709
 H         1.423609        -0.733744         2.118839
