19
Iteration:  3570
 C         3.644503        -2.674315        -0.018228
 C         3.100352        -1.236362         0.172154
 O         2.471353        -0.625795        -0.965934
 C         1.579972         0.193636        -0.128763
 C         0.141636         0.206589        -0.522615
 C         2.299807         1.501021         0.002169
 O         3.577150         1.367506         0.666042
 C         3.542842        -0.013563         1.127213
 C         2.171178        -0.626646         1.241153
 H         3.082466        -3.199275        -0.910442
 H         4.606801        -2.597382        -0.500582
 H         3.585913        -3.100294         0.963325
 H         0.007104        -0.139174        -1.514921
 H        -0.356916        -0.602228         0.108183
 H        -0.340418         1.173898        -0.372355
 H         2.401974         2.038738        -0.989222
 H         1.722251         2.105240         0.734273
 H         4.311598        -0.186496         1.866721
 H         1.495874        -0.964375         2.057191
