19
Iteration:  2605
 C         3.564818        -2.571051        -0.122074
 C         3.182446        -1.113713         0.090073
 O         2.617700        -0.406946        -1.067694
 C         1.635125         0.121619        -0.087447
 C         0.177129         0.020173        -0.468415
 C         2.177708         1.563509         0.230006
 O         3.494965         1.273960         0.787693
 C         3.534267        -0.044526         1.147760
 C         2.159664        -0.717017         1.019059
 H         2.674011        -3.113407        -0.358348
 H         4.321995        -2.708215        -0.906511
 H         3.957691        -3.118992         0.752426
 H        -0.042836        -0.666989        -1.294951
 H        -0.233357        -0.371909         0.458078
 H        -0.385080         0.965991        -0.646106
 H         2.318153         2.140102        -0.779039
 H         1.683028         2.121826         1.072066
 H         4.270291        -0.409477         1.915808
 H         1.519731        -1.210529         1.677120
