19
Iteration:  1360charge 0 multiplicity 1
 C         3.774117        -2.543357         0.019119
 C         3.131090        -1.198069         0.254985
 O         2.101318        -0.883369        -0.690317
 C         1.570515         0.094393         0.182413
 C         0.055138         0.097666         0.084169
 C         2.083732         1.455003        -0.319067
 O         3.520084         1.390882         0.035024
 C         3.831880         0.149150         0.691710
 C         2.516747        -0.432181         1.337118
 H         4.703927        -2.731833         0.593859
 H         3.074914        -3.258463         0.379057
 H         3.997810        -2.582014        -1.079083
 H        -0.088129         0.070891        -0.972156
 H        -0.416162        -0.710604         0.594176
 H        -0.308081         1.074576         0.445229
 H         2.029532         1.472099        -1.390934
 H         1.638304         2.271690         0.248187
 H         4.642355        -0.071271         1.393292
 H         2.267073        -0.533011         2.375274
