19
Iteration:  1697charge 0 multiplicity 1
 C         3.689130        -2.589091        -0.053547
 C         3.204186        -1.134157         0.094584
 O         2.287811        -0.711064        -0.966280
 C         1.571919         0.077944         0.083206
 C         0.009622         0.033497        -0.133487
 C         2.158613         1.528630         0.139829
 O         3.550302         1.376926         0.305738
 C         3.718110         0.123521         0.814400
 C         2.419376        -0.567147         1.294378
 H         4.465795        -2.990799        -0.757143
 H         3.845098        -2.942174         0.938711
 H         2.718105        -3.102109        -0.402686
 H        -0.149102        -0.690439        -0.966518
 H        -0.769469        -0.302766         0.642827
 H        -0.325663         1.043853        -0.516536
 H         2.007946         2.073371        -0.790611
 H         1.865353         2.258320         0.926262
 H         4.554887         0.008429         1.506741
 H         2.179664        -1.086803         2.221245
