19
Iteration:  1980
 C         3.945539        -2.442127        -0.089758
 C         2.989761        -1.222176         0.040498
 O         2.329988        -0.619457        -0.980030
 C         1.541823         0.165592        -0.045660
 C        -0.018365         0.167133        -0.271450
 C         2.293492         1.495501         0.152628
 O         3.627569         1.265629         0.434257
 C         3.594995        -0.087572         1.045834
 C         2.157992        -0.648319         1.249430
 H         4.155752        -2.700379        -1.172146
 H         4.919554        -2.357617         0.411725
 H         3.526250        -3.365053         0.428143
 H        -0.229910        -0.471587        -1.121643
 H        -0.545748        -0.180806         0.630021
 H        -0.211881         1.140180        -0.664080
 H         2.264500         2.234839        -0.661768
 H         1.847489         2.012580         0.983936
 H         4.258160        -0.056798         1.876163
 H         1.678821        -1.135733         2.151011
