19
Iteration:  3998charge 0 multiplicity 1
 C         3.735186        -2.539337        -0.020145
 C         3.056402        -1.199385         0.326814
 O         2.435705        -0.745356        -0.870730
 C         1.571043         0.141377        -0.082657
 C         0.135952         0.270660        -0.572229
 C         2.371171         1.488399        -0.085412
 O         3.649720         1.268135         0.535882
 C         3.525585        -0.021383         1.131600
 C         2.033713        -0.508723         1.287009
 H         2.973949        -3.390946        -0.336813
 H         4.311023        -2.394983        -0.897311
 H         4.423680        -2.913293         0.857151
 H        -0.519669        -0.637387        -0.347595
 H        -0.454246         1.056859        -0.087042
 H         0.238809         0.470229        -1.660742
 H         2.382132         1.690508        -1.161041
 H         1.711760         2.285363         0.306493
 H         4.090936        -0.450316         1.950279
 H         1.382760        -1.063579         2.040316
