19
Iteration:  2123charge 0 multiplicity 1
 C         4.049046        -2.369537        -0.168209
 C         3.069432        -1.209959         0.082130
 O         2.397145        -0.552422        -0.976479
 C         1.533173         0.173928        -0.015930
 C         0.075105         0.297214        -0.367283
 C         2.287928         1.470856         0.138698
 O         3.583186         1.152503         0.575098
 C         3.430433        -0.194106         1.167925
 C         2.022858        -0.737606         1.173196
 H         4.981554        -2.386481         0.466978
 H         3.577200        -3.439198        -0.351463
 H         4.252267        -1.976503        -1.248876
 H        -0.480906         0.668019         0.523764
 H        -0.112108         0.947994        -1.238409
 H        -0.285506        -0.707489        -0.525540
 H         2.411756         2.161114        -0.742575
 H         1.753939         2.135263         0.910530
 H         4.316167        -0.250954         1.862431
 H         1.331137        -1.333375         1.758521
