19
Iteration:  3513
 C         3.635294        -2.536451         0.141617
 C         3.037439        -1.173156         0.174981
 O         2.473226        -0.567325        -1.020622
 C         1.511683         0.207428        -0.125277
 C         0.085638         0.048145        -0.586215
 C         2.310251         1.591660         0.183970
 O         3.718906         1.222698         0.557252
 C         3.575508        -0.089848         1.071682
 C         2.130650        -0.584503         1.145882
 H         2.851614        -3.304639        -0.072291
 H         4.495685        -2.597288        -0.569052
 H         4.136197        -2.929800         1.025421
 H        -0.095784         0.705740        -1.458613
 H        -0.181491        -0.989365        -0.807079
 H        -0.636490         0.459299         0.182323
 H         2.385282         2.271923        -0.735581
 H         2.020526         2.148017         1.072316
 H         4.144371        -0.310062         1.965906
 H         1.426511        -0.900211         1.842302
