19
Iteration:  3283
 C         3.854591        -2.628266         0.141148
 C         3.070293        -1.240807         0.131898
 O         2.565491        -0.594521        -1.073489
 C         1.616911         0.227272        -0.115666
 C         0.011706         0.286404        -0.422340
 C         2.330617         1.590297        -0.030675
 O         3.583565         1.245910         0.649150
 C         3.441440        -0.128036         1.150598
 C         1.965828        -0.668800         1.069247
 H         3.301714        -3.506354         0.443437
 H         4.555227        -2.706032        -0.774154
 H         4.578198        -2.523348         1.036234
 H        -0.399231         1.075764        -1.123644
 H        -0.346166        -0.672852        -0.654682
 H        -0.331993         0.459156         0.610019
 H         2.679323         1.785954        -1.081920
 H         1.723917         2.393684         0.437554
 H         4.021337        -0.208721         2.033167
 H         1.389189        -1.179981         1.882335
