19
Iteration:  2328
 C         3.975990        -2.379742        -0.194694
 C         3.036202        -1.194394        -0.016220
 O         2.430232        -0.545939        -1.103099
 C         1.577285         0.211098        -0.067380
 C         0.079887         0.231089        -0.375021
 C         2.319223         1.572931         0.147075
 O         3.546153         1.171768         0.905537
 C         3.444356        -0.223136         1.201315
 C         2.008664        -0.760972         1.043290
 H         3.659363        -3.316689        -0.650692
 H         4.708079        -1.900431        -0.847809
 H         4.577737        -2.581691         0.677141
 H        -0.180109         0.509366        -1.443459
 H        -0.326982        -0.794470        -0.138397
 H        -0.303406         1.002975         0.326228
 H         2.811131         1.869435        -0.834347
 H         1.693663         2.362229         0.602638
 H         4.096741        -0.802713         1.977710
 H         1.386146        -1.249158         1.754183
