19
Iteration:  1727
 C         3.820632        -2.498207        -0.146240
 C         3.111665        -1.211013         0.142694
 O         2.257362        -0.739309        -0.905464
 C         1.594654         0.112758         0.038601
 C         0.077182         0.125356        -0.042485
 C         2.173406         1.534894        -0.055068
 O         3.525834         1.316883         0.400990
 C         3.686959         0.045515         0.884965
 C         2.323245        -0.583494         1.260906
 H         3.844798        -2.639386        -1.254561
 H         4.755116        -2.497491         0.370623
 H         3.175820        -3.238119         0.315123
 H        -0.161698        -0.754826        -0.656814
 H        -0.576315         0.176954         0.829677
 H        -0.209986         0.936489        -0.760066
 H         2.155871         1.916698        -1.089118
 H         1.706768         2.264627         0.604900
 H         4.431581        -0.060354         1.620527
 H         1.942342        -1.061192         2.203460
