19
Iteration:  1917
 C         3.820665        -2.458197        -0.173208
 C         3.143955        -1.152405         0.147129
 O         2.293496        -0.716868        -0.948746
 C         1.560487         0.155102         0.016477
 C         0.054280         0.107576        -0.186484
 C         2.306831         1.518785        -0.007701
 O         3.553867         1.296993         0.573841
 C         3.668881        -0.025148         0.982192
 C         2.186890        -0.607357         1.186597
 H         4.882381        -2.280674        -0.262896
 H         3.664649        -3.292104         0.545141
 H         3.359132        -2.767596        -1.146930
 H        -0.251265        -0.677491        -0.931585
 H        -0.622149         0.014548         0.714999
 H        -0.401871         1.054654        -0.551018
 H         2.428636         1.680381        -1.088236
 H         1.641938         2.393859         0.372514
 H         4.268610        -0.229339         1.818565
 H         1.620916        -1.042833         2.067018
