19
Iteration:  1563
 C         3.945893        -2.409375        -0.018078
 C         3.146175        -1.185700         0.109795
 O         2.140204        -0.851440        -0.883066
 C         1.551129         0.153077         0.154147
 C        -0.033022         0.194236         0.085414
 C         2.219446         1.459021        -0.134393
 O         3.613673         1.261897         0.187416
 C         3.642484         0.022547         0.779096
 C         2.297111        -0.518776         1.261272
 H         3.340814        -3.371458        -0.052194
 H         4.492796        -2.305502        -0.991538
 H         4.789642        -2.487419         0.642489
 H        -0.470994         1.225240        -0.059996
 H        -0.331970        -0.645464        -0.594728
 H        -0.428424        -0.198357         1.086486
 H         2.119913         1.910641        -1.137348
 H         1.725071         2.091949         0.653871
 H         4.484755        -0.004189         1.545628
 H         2.028887        -0.774120         2.292067
