19
Iteration:   976
 C         3.789645        -2.514683        -0.064805
 C         3.109948        -1.169517         0.217832
 O         2.170634        -0.781978        -0.740157
 C         1.516665         0.162107         0.172439
 C         0.025289        -0.029525         0.147455
 C         2.183752         1.477543        -0.256594
 O         3.620781         1.266133         0.010945
 C         3.716668         0.078350         0.761619
 C         2.392635        -0.346419         1.346315
 H         4.778021        -2.377779         0.368435
 H         3.390136        -3.398810         0.457490
 H         3.732819        -2.877839        -1.078748
 H        -0.387724         0.239594        -0.842999
 H        -0.336186        -1.070760         0.405778
 H        -0.447223         0.680354         0.819403
 H         2.116253         1.699064        -1.312168
 H         1.851897         2.363926         0.320200
 H         4.624355        -0.081433         1.293865
 H         2.244739        -0.223552         2.449406
