19
Iteration:  4078
 C         3.645680        -2.702503         0.216117
 C         3.122510        -1.188516         0.059191
 O         2.497982        -0.552515        -1.044289
 C         1.619665         0.163080        -0.085978
 C         0.174151         0.167442        -0.449242
 C         2.284286         1.583683         0.045678
 O         3.608904         1.273375         0.605103
 C         3.496604        -0.070684         1.062472
 C         2.087682        -0.532161         1.076630
 H         2.749674        -3.342972         0.293577
 H         4.421219        -3.078629        -0.566790
 H         4.155659        -2.869573         1.159882
 H        -0.389185         0.477788         0.403322
 H         0.059841         0.802012        -1.426935
 H        -0.244984        -0.858672        -0.594992
 H         2.238577         2.057288        -0.955923
 H         1.632405         2.062389         0.885171
 H         4.114298        -0.417215         1.933489
 H         1.444778        -0.806696         1.905386
