19
Iteration:  4443charge 0 multiplicity 1
 C         3.530823        -2.643138         0.136347
 C         3.151706        -1.178949         0.153010
 O         2.475262        -0.621844        -1.035327
 C         1.664294         0.158085        -0.130702
 C         0.229728         0.125436        -0.502152
 C         2.193934         1.563580         0.119978
 O         3.619786         1.335403         0.602442
 C         3.567058        -0.008453         1.096071
 C         2.117444        -0.610679         1.111421
 H         2.580832        -3.267099         0.180314
 H         4.053490        -2.882917        -0.809047
 H         4.259479        -2.939678         0.970496
 H        -0.365636         1.056414        -0.596760
 H         0.212230        -0.210354        -1.509301
 H        -0.233445        -0.748867         0.023652
 H         2.310816         2.287666        -0.694353
 H         1.638598         2.162803         0.919343
 H         4.256767        -0.190260         1.892202
 H         1.366212        -0.953805         1.855297
