19
Iteration:  2522
 C         3.987763        -2.421598        -0.182450
 C         3.141180        -1.191740         0.108816
 O         2.373465        -0.649064        -0.981064
 C         1.502257         0.048918         0.011164
 C         0.127590         0.411424        -0.553039
 C         2.290341         1.534825         0.180049
 O         3.449514         1.245395         0.798445
 C         3.520237        -0.128574         1.055609
 C         2.101251        -0.817428         1.176140
 H         3.408206        -3.248835        -0.855774
 H         4.669205        -2.018257        -0.958949
 H         4.609402        -2.745189         0.694377
 H        -0.736348        -0.054648         0.004468
 H        -0.058521         1.545520        -0.555716
 H         0.074817         0.018561        -1.545358
 H         2.399627         2.028635        -0.756746
 H         1.547248         2.185653         0.727183
 H         4.214857        -0.558731         1.747449
 H         1.699991        -1.334834         1.994837
