19
Iteration:   632charge 0 multiplicity 1
 C         4.086854        -2.380744        -0.073463
 C         3.208190        -1.254014         0.125870
 O         2.049282        -1.018125        -0.794065
 C         1.448906         0.091393         0.163440
 C        -0.018309         0.404624         0.344290
 C         2.169749         1.431871        -0.297499
 O         3.543109         1.259130         0.090331
 C         3.655494         0.023790         0.766140
 C         2.381709        -0.441845         1.210055
 H         4.496130        -2.567806         0.993907
 H         3.563243        -3.267411        -0.286759
 H         4.977277        -2.093401        -0.686403
 H        -0.467878         0.896793        -0.510876
 H        -0.594565        -0.508371         0.159900
 H        -0.187827         0.858459         1.338030
 H         1.941187         1.477317        -1.399426
 H         1.743481         2.232761         0.254407
 H         4.613730        -0.112002         1.398114
 H         2.282202        -0.692342         2.233316
