19
Iteration:   940charge 0 multiplicity 1
 C         3.588887        -2.535260         0.147167
 C         3.121378        -1.138533         0.089626
 O         2.180531        -0.697582        -0.882322
 C         1.496600         0.196060         0.086601
 C         0.099076        -0.272885         0.250894
 C         2.229562         1.573555        -0.088143
 O         3.660060         1.317735        -0.056687
 C         3.726676         0.115005         0.729036
 C         2.408022        -0.384500         1.242552
 H         4.515032        -2.530239         0.626052
 H         2.886385        -3.111602         0.819948
 H         3.888757        -2.870048        -0.820091
 H        -0.230271        -0.612165        -0.782193
 H        -0.008370        -1.093224         0.961565
 H        -0.425774         0.655212         0.567620
 H         2.086160         2.094403        -1.066432
 H         1.996861         2.188627         0.728068
 H         4.726345        -0.117772         1.332271
 H         2.118761        -0.564952         2.253578
