19
Iteration:  1792charge 0 multiplicity 1
 C         3.899616        -2.387304        -0.190268
 C         3.113111        -1.236021         0.122913
 O         2.246481        -0.703070        -0.948687
 C         1.551430         0.158194         0.097295
 C         0.057973         0.183072        -0.079500
 C         2.188413         1.501131         0.004509
 O         3.669366         1.290807         0.410331
 C         3.573804        -0.077852         0.952200
 C         2.198450        -0.649938         1.218625
 H         3.377332        -3.377487        -0.031159
 H         4.434916        -2.288921        -1.146961
 H         4.734649        -2.444804         0.530864
 H        -0.435102        -0.558836         0.545434
 H        -0.522095         1.081855         0.000009
 H        -0.049189        -0.219976        -1.104534
 H         2.222073         1.981625        -1.027498
 H         1.597851         2.261243         0.679910
 H         4.401593        -0.203628         1.624072
 H         1.638810        -0.937567         2.146181
