19
Iteration:  1109
 C         3.473310        -2.698469         0.071005
 C         3.280184        -1.163951         0.258123
 O         2.274487        -0.761439        -0.758288
 C         1.573050         0.105437         0.197718
 C         0.058498        -0.141237         0.131133
 C         2.046589         1.555833        -0.169128
 O         3.578516         1.389250        -0.118830
 C         3.772887         0.240976         0.647575
 C         2.579766        -0.362112         1.330754
 H         4.098471        -3.220456         0.877519
 H         2.472648        -3.022648         0.134924
 H         3.877848        -2.884980        -0.944491
 H        -0.236105        -0.364589        -0.914520
 H        -0.153967        -0.943385         0.867394
 H        -0.566756         0.764028         0.371635
 H         1.725016         1.882965        -1.132277
 H         1.833678         2.267949         0.582783
 H         4.707994         0.222450         1.291815
 H         2.238632        -0.582517         2.390618
