19
Iteration:  1315
 C         3.679721        -2.511208         0.249654
 C         3.121972        -1.160687         0.131127
 O         2.186562        -0.753760        -0.880418
 C         1.580505         0.140350         0.040381
 C         0.050975        -0.111533         0.319713
 C         2.176784         1.522335        -0.219082
 O         3.625168         1.269746        -0.076284
 C         3.751839         0.123151         0.710772
 C         2.344715        -0.320536         1.209467
 H         3.931856        -2.799179         1.325678
 H         3.140448        -3.336142        -0.047509
 H         4.672160        -2.478910        -0.266243
 H        -0.592758         0.617373        -0.103149
 H        -0.175256        -1.089838         0.022479
 H        -0.106488        -0.079765         1.397049
 H         1.958555         1.859092        -1.196814
 H         1.796589         2.113253         0.609958
 H         4.752784         0.090250         1.204222
 H         2.201458        -0.734796         2.142656
