19
Iteration:   595charge 0 multiplicity 1
 C         3.793584        -2.388894        -0.053500
 C         3.056272        -1.141276         0.191254
 O         2.169727        -0.825924        -0.836201
 C         1.564546         0.191674         0.121368
 C         0.043149        -0.005378         0.310201
 C         2.202650         1.453845        -0.266163
 O         3.595913         1.218911         0.010922
 C         3.728624         0.082692         0.817820
 C         2.375001        -0.405939         1.295045
 H         4.597282        -2.502626         0.598124
 H         3.134324        -3.283495         0.060015
 H         4.119813        -2.497372        -1.092850
 H        -0.325458         0.084476        -0.703601
 H        -0.066064        -0.982923         0.815896
 H        -0.529266         0.708205         0.920127
 H         2.076311         1.743997        -1.303089
 H         1.851924         2.353878         0.363931
 H         4.638749        -0.011469         1.344349
 H         2.130356        -0.748346         2.309217
