19
Iteration:  4427charge 0 multiplicity 1
 C         3.563215        -2.589145         0.031631
 C         3.125927        -1.166718         0.163472
 O         2.471413        -0.583565        -0.951774
 C         1.561313         0.227704        -0.063364
 C         0.158791         0.022225        -0.616922
 C         2.367541         1.546198         0.046003
 O         3.581046         1.233509         0.588147
 C         3.499923        -0.056261         1.142658
 C         2.176477        -0.496762         1.203988
 H         2.704254        -3.201851         0.176378
 H         4.218387        -2.762112        -0.851785
 H         4.125384        -2.853980         0.908793
 H        -0.443356         0.840047        -0.180164
 H         0.229273         0.099727        -1.766289
 H        -0.333203        -0.832275        -0.168187
 H         2.423355         2.008661        -0.950240
 H         1.773035         2.123614         0.752224
 H         4.236477        -0.222244         1.959408
 H         1.843205        -0.845379         2.164046
