19
Iteration:  2356
 C         3.890147        -2.447684        -0.133116
 C         3.067459        -1.119680        -0.017003
 O         2.425372        -0.433895        -1.045730
 C         1.591663         0.203931        -0.074103
 C         0.089166         0.136721        -0.478492
 C         2.297773         1.566622         0.243398
 O         3.555246         1.171106         0.797086
 C         3.486926        -0.221278         1.165387
 C         2.075168        -0.748922         1.079384
 H         3.344383        -3.457067        -0.115915
 H         4.357220        -2.587605        -1.136935
 H         4.640061        -2.438875         0.690528
 H        -0.194014         0.927542        -1.161337
 H        -0.054475        -0.819673        -0.966109
 H        -0.533144         0.243973         0.395315
 H         2.633427         2.220506        -0.538048
 H         1.589236         2.220423         0.840660
 H         4.201431        -0.714142         1.813757
 H         1.395446        -1.225589         1.850982
