19
Iteration:   894
 C         3.619701        -2.656235         0.088674
 C         3.220198        -1.201404         0.089184
 O         2.176537        -0.802194        -0.828322
 C         1.664090         0.063333         0.207275
 C         0.108469         0.075217         0.171226
 C         2.016661         1.494199        -0.144182
 O         3.486996         1.475523        -0.046201
 C         3.747617         0.154779         0.688581
 C         2.575522        -0.485100         1.305366
 H         3.824006        -2.951270         1.161595
 H         2.723937        -3.207148        -0.072943
 H         4.548207        -2.898568        -0.434271
 H        -0.179201         0.368666        -0.844639
 H        -0.205252        -0.930312         0.454084
 H        -0.176105         0.823847         0.978797
 H         1.781585         1.696900        -1.204033
 H         1.723839         2.240238         0.499001
 H         4.577308         0.200335         1.314814
 H         2.385082        -0.853783         2.359369
