19
Iteration:   707
 C         3.572166        -2.533684         0.024862
 C         3.078238        -1.192230         0.203349
 O         2.279529        -0.693690        -0.843142
 C         1.559831         0.171502         0.124839
 C         0.090207        -0.186760         0.298675
 C         2.120310         1.556316        -0.150133
 O         3.653758         1.294063        -0.098705
 C         3.772667         0.133422         0.763184
 C         2.438602        -0.397758         1.230055
 H         4.360568        -2.923215         0.749203
 H         2.796946        -3.226258         0.013510
 H         4.121287        -2.319081        -0.931475
 H        -0.547911         0.256663        -0.524180
 H         0.003510        -1.361050         0.315845
 H        -0.374821         0.259623         1.240478
 H         1.827709         1.863267        -1.219047
 H         1.673934         2.225972         0.722521
 H         4.552928         0.162534         1.633501
 H         2.123306        -0.554850         2.222997
