19
Iteration:   246charge 0 multiplicity 1
 C         4.081880        -2.251522        -0.033970
 C         3.050116        -1.161238         0.153287
 O         2.064065        -0.917785        -0.819742
 C         1.476658         0.042447         0.023060
 C        -0.007494         0.339538         0.289378
 C         2.197656         1.336736        -0.213925
 O         3.636350         1.144081         0.023122
 C         3.649741         0.064202         0.873531
 C         2.325116        -0.523191         1.249252
 H         4.851376        -2.159569         0.667082
 H         3.687201        -3.270729         0.053139
 H         4.610893        -2.318088        -1.043373
 H        -0.469021         0.931583        -0.540524
 H        -0.409141        -0.614108         0.626914
 H        -0.061003         1.039493         1.135938
 H         1.998787         1.756177        -1.226622
 H         1.803423         2.048990         0.496775
 H         4.624660        -0.190816         1.402070
 H         1.908817        -0.430570         2.184427
