19
Iteration:  3782
 C         3.700706        -2.478691         0.162109
 C         3.120197        -1.133950         0.162706
 O         2.338832        -0.718288        -0.944159
 C         1.591759         0.142510        -0.077361
 C         0.148053         0.270575        -0.540606
 C         2.332917         1.453926        -0.013568
 O         3.578263         1.258636         0.575612
 C         3.554391        -0.106684         1.006506
 C         2.141422        -0.599899         1.201473
 H         3.098935        -3.252810        -0.317935
 H         4.638564        -2.528741        -0.523728
 H         3.961748        -2.673175         1.263146
 H        -0.432673         0.539843         0.369155
 H         0.119280         1.216632        -1.040771
 H        -0.238241        -0.530515        -1.159194
 H         2.497909         1.939281        -0.974411
 H         1.737287         2.190535         0.646437
 H         4.214739        -0.547513         1.794323
 H         1.704282        -0.981128         2.139204
