19
Iteration:  1946charge 0 multiplicity 1
 C         3.978817        -2.513549        -0.136140
 C         3.126140        -1.209163         0.080708
 O         2.273931        -0.758489        -0.945089
 C         1.552171         0.122903         0.025092
 C         0.021110         0.370343        -0.252080
 C         2.206540         1.458682         0.035881
 O         3.493458         1.295455         0.526942
 C         3.633989        -0.036514         0.995333
 C         2.259234        -0.675380         1.260565
 H         4.807105        -2.257904        -0.904039
 H         4.417619        -2.675515         0.833099
 H         3.399027        -3.289557        -0.692127
 H        -0.263227        -0.188464        -1.118117
 H        -0.791367         0.218417         0.458800
 H        -0.149696         1.417246        -0.511208
 H         2.281111         1.767916        -1.026685
 H         1.605046         2.124472         0.656870
 H         4.319428        -0.180183         1.869380
 H         1.806258        -1.147308         2.129443
