19
Iteration:  3044
 C         3.813193        -2.511785         0.128848
 C         3.003023        -1.178773         0.179223
 O         2.522045        -0.623876        -1.001807
 C         1.599105         0.256431        -0.151345
 C         0.039123         0.183541        -0.480522
 C         2.437878         1.567435         0.026151
 O         3.608385         1.165037         0.595900
 C         3.420501        -0.079735         1.153592
 C         2.041207        -0.660917         1.107013
 H         3.229439        -3.366881        -0.212485
 H         4.639255        -2.370517        -0.540734
 H         4.316404        -2.804473         1.075619
 H        -0.367855         1.129938        -0.928714
 H        -0.252814        -0.734602        -0.964169
 H        -0.600433         0.156723         0.432565
 H         2.518491         1.960774        -1.065144
 H         1.866063         2.409266         0.463443
 H         4.068530        -0.416215         1.990480
 H         1.303644        -0.943039         1.803168
