19
Iteration:  4366
 C         3.876576        -2.521393         0.139948
 C         3.110241        -1.235335         0.251962
 O         2.419370        -0.747386        -0.981501
 C         1.513826         0.180503        -0.160147
 C         0.027403         0.335314        -0.435984
 C         2.332625         1.470361        -0.104583
 O         3.659194         1.226899         0.578583
 C         3.503247        -0.113841         1.155392
 C         2.012906        -0.499003         1.099628
 H         3.353688        -3.152245        -0.586667
 H         4.823610        -2.412225        -0.438825
 H         4.032412        -3.006321         1.169129
 H        -0.531559         0.060025         0.544145
 H        -0.177543         1.292768        -0.846306
 H        -0.354321        -0.321709        -1.248522
 H         2.627980         2.104870        -0.968028
 H         1.855566         2.076482         0.738698
 H         4.280373        -0.347984         1.920440
 H         1.362188        -0.775649         1.922057
