19
Iteration:  4889charge 0 multiplicity 1
 C         3.875099        -2.530080        -0.084796
 C         3.131841        -1.204824         0.046595
 O         2.425790        -0.455406        -1.088399
 C         1.537284         0.166985        -0.044168
 C         0.108076         0.266942        -0.479590
 C         2.216812         1.529855         0.234926
 O         3.519788         1.231993         0.823844
 C         3.601120        -0.218922         1.086485
 C         2.083689        -0.758132         1.030222
 H         3.291313        -3.361009        -0.551364
 H         4.905176        -2.238176        -0.541887
 H         4.253430        -2.897937         0.912130
 H        -0.462061        -0.698473        -0.565672
 H        -0.366329         1.125222         0.016148
 H         0.107926         0.626823        -1.566478
 H         2.193979         2.229799        -0.627136
 H         1.636068         2.034949         1.007802
 H         4.144264        -0.363280         1.999065
 H         1.569265        -1.308691         1.792579
