19
Iteration:  1599charge 0 multiplicity 1
 C         3.892525        -2.445560        -0.151282
 C         3.186180        -1.263888         0.184429
 O         2.176962        -0.858322        -0.851814
 C         1.547064         0.117177         0.174975
 C         0.046839         0.266534        -0.033425
 C         2.162631         1.440479        -0.161677
 O         3.497405         1.376506         0.335581
 C         3.665851         0.031934         0.810164
 C         2.412475        -0.573098         1.275051
 H         3.732060        -3.189445         0.649587
 H         3.312953        -2.873864        -0.913114
 H         4.977426        -2.285620        -0.290626
 H        -0.356274         0.708930        -0.938720
 H        -0.392888        -0.746534         0.023776
 H        -0.318182         0.798813         0.858465
 H         2.027604         1.650153        -1.225633
 H         1.681769         2.309133         0.411177
 H         4.559042         0.071753         1.359970
 H         2.068992        -1.026438         2.258443
