19
Iteration:   879charge 0 multiplicity 1
 C         3.762296        -2.589844         0.058158
 C         3.202027        -1.160362         0.153377
 O         2.080323        -0.851074        -0.808317
 C         1.526697         0.133755         0.213314
 C         0.044191         0.076885         0.202727
 C         2.133426         1.461297        -0.197141
 O         3.540001         1.324313         0.020921
 C         3.805816         0.145541         0.681416
 C         2.515604        -0.387093         1.280166
 H         3.917775        -3.074212         1.085233
 H         3.039481        -3.190320        -0.528700
 H         4.684234        -2.706375        -0.578593
 H        -0.263257         0.655791        -0.677831
 H        -0.332753        -0.975251         0.172471
 H        -0.524033         0.568200         0.968871
 H         1.923334         1.631516        -1.247040
 H         1.637162         2.325813         0.382873
 H         4.848053         0.173847         1.082184
 H         2.308864        -0.548932         2.337395
