19
Iteration:  3564
 C         3.598336        -2.659534        -0.022356
 C         3.102526        -1.202183         0.214368
 O         2.517816        -0.643243        -0.984817
 C         1.603808         0.182188        -0.094719
 C         0.183367         0.210865        -0.489341
 C         2.244884         1.548086         0.020186
 O         3.535741         1.359711         0.648305
 C         3.555517        -0.044693         1.078667
 C         2.162465        -0.630738         1.198521
 H         3.043590        -3.238560        -0.696142
 H         4.687241        -2.650256        -0.316156
 H         3.674998        -3.342071         0.889464
 H         0.059932        -0.034334        -1.596856
 H        -0.382046        -0.510811         0.035189
 H        -0.311944         1.187336        -0.412261
 H         2.359054         1.990668        -0.938723
 H         1.659671         2.163284         0.753785
 H         4.358121        -0.301475         1.807397
 H         1.638001        -0.973494         2.113562
