19
Iteration:  1085charge 0 multiplicity 1
 C         3.591770        -2.603139         0.073175
 C         3.102315        -1.164268         0.227319
 O         2.276847        -0.772175        -0.835118
 C         1.617621         0.186971         0.103360
 C         0.084384        -0.136040         0.298000
 C         2.102891         1.546068        -0.187970
 O         3.577550         1.269680        -0.136511
 C         3.760215         0.157595         0.736515
 C         2.475472        -0.306019         1.265558
 H         3.940639        -2.948722         1.056041
 H         2.818046        -3.255963        -0.296217
 H         4.462221        -2.600522        -0.569519
 H        -0.514915         0.001155        -0.618422
 H         0.105620        -1.183483         0.710853
 H        -0.395644         0.512450         1.055732
 H         1.859451         1.935142        -1.156788
 H         1.774148         2.188093         0.602502
 H         4.590061         0.099787         1.375332
 H         1.926927        -0.284858         2.284863
