19
Iteration:  1860
 C         3.622375        -2.605904        -0.094299
 C         3.176302        -1.086202         0.072580
 O         2.406985        -0.546248        -1.036310
 C         1.561662         0.246636         0.026352
 C         0.090773        -0.081655        -0.188267
 C         2.120930         1.569588         0.168459
 O         3.592967         1.270595         0.386548
 C         3.650997         0.009653         1.005814
 C         2.321886        -0.613439         1.204664
 H         4.039563        -3.066730         0.845418
 H         2.777433        -3.216052        -0.380924
 H         4.413863        -2.852334        -0.868425
 H        -0.245407        -0.939782         0.395201
 H        -0.455150         0.799028         0.242819
 H        -0.051133        -0.169098        -1.275964
 H         2.084160         2.289389        -0.682726
 H         1.545776         2.021010         1.091667
 H         4.537872        -0.222128         1.665344
 H         1.870131        -0.891409         2.123795
