19
Iteration:  3954
 C         3.743998        -2.596634         0.253448
 C         3.031238        -1.286795         0.197571
 O         2.482762        -0.646707        -1.021260
 C         1.528135         0.255823        -0.114047
 C         0.043347         0.226456        -0.419918
 C         2.362027         1.511551        -0.079070
 O         3.731440         1.296236         0.573366
 C         3.511687        -0.077357         0.978377
 C         2.032548        -0.557989         1.127558
 H         3.188894        -3.516663        -0.206207
 H         4.734246        -2.441200        -0.015055
 H         3.804762        -2.985123         1.368723
 H        -0.177843        -0.785018        -0.969243
 H        -0.440402         0.160749         0.548751
 H        -0.297761         1.094634        -1.027541
 H         2.389198         2.004678        -1.084557
 H         1.821286         2.306284         0.526872
 H         4.226620        -0.376417         1.813486
 H         1.346103        -0.955909         1.992182
