19
Iteration:  4977
 C         3.823115        -2.473360        -0.211061
 C         3.084686        -1.153686         0.057634
 O         2.488828        -0.407507        -1.034411
 C         1.583210         0.211791        -0.014330
 C         0.155675         0.181966        -0.517601
 C         2.273843         1.480061         0.251115
 O         3.509675         1.173720         0.815498
 C         3.448463        -0.180952         1.200052
 C         2.083550        -0.773401         1.018503
 H         3.323925        -3.249597        -0.883921
 H         4.717373        -2.198578        -0.861969
 H         4.366682        -2.806359         0.663658
 H        -0.541060         0.418572         0.313431
 H         0.037068         0.979073        -1.196151
 H        -0.158350        -0.843926        -0.786323
 H         2.377638         1.974651        -0.758746
 H         1.818777         2.330326         0.819047
 H         4.081881        -0.599187         1.973819
 H         1.617020        -1.174799         1.931734
