19
Iteration:  1624
 C         3.822105        -2.525699        -0.122319
 C         3.176381        -1.203098         0.128170
 O         2.154435        -0.701206        -0.950607
 C         1.548531         0.117417         0.132567
 C         0.032140        -0.004467         0.036894
 C         2.249424         1.499690        -0.144410
 O         3.601017         1.335963         0.356617
 C         3.645348         0.062576         0.896480
 C         2.331376        -0.476480         1.263412
 H         4.307493        -3.014092         0.700089
 H         2.953119        -3.184966        -0.441505
 H         4.573784        -2.332464        -0.899419
 H        -0.229000        -0.165871        -0.998195
 H        -0.419747        -0.838466         0.557619
 H        -0.430910         0.892364         0.360355
 H         2.240069         1.956944        -1.161100
 H         1.746089         2.221914         0.539473
 H         4.602619         0.033223         1.470131
 H         1.951904        -0.767134         2.197188
