19
Iteration:  3884
 C         3.580345        -2.706147         0.095394
 C         3.099787        -1.221337         0.202652
 O         2.433074        -0.672513        -0.860532
 C         1.652535         0.240407        -0.047812
 C         0.086799         0.105254        -0.632104
 C         2.286419         1.575185        -0.064210
 O         3.614712         1.276914         0.533124
 C         3.627348        -0.065936         1.093076
 C         2.143513        -0.372584         1.280550
 H         2.728320        -3.358778        -0.102876
 H         4.306225        -2.707848        -0.900103
 H         4.091690        -3.231914         0.881760
 H        -0.019213        -0.912405        -0.922182
 H        -0.638833         0.124696         0.235372
 H        -0.150462         0.794097        -1.450697
 H         2.397486         2.110012        -1.043615
 H         1.756291         2.337265         0.558373
 H         4.406686        -0.216199         1.786443
 H         1.692085        -0.667344         2.187504
