19
Iteration:  1747
 C         3.968565        -2.508519        -0.154574
 C         3.125798        -1.197658         0.084604
 O         2.278501        -0.720669        -0.956944
 C         1.511354         0.208393         0.094201
 C        -0.013512         0.082731        -0.006632
 C         2.262773         1.513079        -0.113092
 O         3.628569         1.323038         0.403048
 C         3.569416        -0.046413         1.018388
 C         2.173732        -0.563289         1.217414
 H         3.595212        -2.699257        -1.196114
 H         5.050191        -2.200932        -0.172708
 H         3.809659        -3.405478         0.433637
 H        -0.409179        -0.926413         0.041575
 H        -0.358630         0.545516         0.894380
 H        -0.543151         0.651257        -0.784723
 H         2.202158         1.745727        -1.220079
 H         1.980936         2.506536         0.420505
 H         4.346366        -0.433037         1.624163
 H         1.683959        -0.687433         2.249185
