19
Iteration:  4764charge 0 multiplicity 1
 C         3.911939        -2.495604        -0.036316
 C         3.070879        -1.207557         0.105371
 O         2.477103        -0.545601        -1.057292
 C         1.554754         0.164652        -0.022004
 C         0.148938         0.286441        -0.402118
 C         2.218826         1.512963         0.160807
 O         3.605211         1.219577         0.695349
 C         3.493909        -0.116348         1.070376
 C         1.988457        -0.745304         1.046094
 H         3.468044        -3.360481        -0.626839
 H         4.824155        -2.350647        -0.588309
 H         4.123019        -2.821940         0.973126
 H        -0.079695         1.039759        -1.180576
 H        -0.284421        -0.650174        -0.923670
 H        -0.465289         0.631607         0.440084
 H         2.410969         2.012913        -0.798807
 H         1.613322         2.098203         0.923347
 H         4.197606        -0.388216         1.872029
 H         1.275530        -1.189678         1.751360
