19
Iteration:  1120charge 0 multiplicity 1
 C         3.444562        -2.601617         0.103557
 C         3.208323        -1.127547         0.135008
 O         2.199486        -0.805326        -0.740509
 C         1.639465         0.140658         0.230404
 C         0.052690        -0.102849         0.081545
 C         2.069964         1.456231        -0.117564
 O         3.552230         1.380380        -0.087957
 C         3.880634         0.241437         0.714316
 C         2.584139        -0.375104         1.270771
 H         4.321294        -2.926011         0.791853
 H         2.607881        -3.195786         0.357238
 H         3.700991        -2.980007        -0.913910
 H         0.028523        -0.614604        -0.911746
 H        -0.345106        -0.954180         0.700530
 H        -0.616406         0.789316         0.270534
 H         1.827606         1.663443        -1.130140
 H         1.596998         2.158688         0.509462
 H         4.902030         0.381434         1.261482
 H         2.443518        -0.494857         2.403407
