19
Iteration:  4991
 C         3.786071        -2.434823        -0.159814
 C         3.123790        -1.167971        -0.029364
 O         2.502482        -0.385041        -1.123828
 C         1.571713         0.154821        -0.013710
 C         0.169236         0.174607        -0.498158
 C         2.201409         1.563341         0.306447
 O         3.568806         1.227516         0.847104
 C         3.496117        -0.224699         1.123434
 C         2.070696        -0.830291         1.100483
 H         2.982675        -3.301939        -0.319503
 H         4.621608        -2.426952        -0.892042
 H         4.055469        -2.697803         0.893123
 H        -0.467197         0.750418         0.157889
 H         0.151716         0.560365        -1.604374
 H        -0.130474        -0.809973        -0.693165
 H         2.373806         2.139296        -0.609231
 H         1.591529         1.977716         1.073257
 H         4.284784        -0.420620         1.874505
 H         1.421017        -1.466483         1.715494
