19
Iteration:  1017
 C         3.923121        -2.480017         0.018482
 C         3.144944        -1.242870         0.137811
 O         2.087474        -0.993872        -0.765061
 C         1.562997         0.002807         0.107400
 C         0.056497         0.350667         0.209109
 C         2.135481         1.398002        -0.286573
 O         3.486186         1.354039         0.053862
 C         3.672612         0.160964         0.774502
 C         2.488147        -0.496710         1.301737
 H         4.615294        -2.486703         0.797566
 H         3.220859        -3.392746         0.166722
 H         4.521010        -2.526117        -0.880028
 H        -0.064793         1.312182        -0.318517
 H        -0.526962        -0.522239        -0.098883
 H        -0.153182         0.581806         1.251233
 H         1.988759         1.590641        -1.380247
 H         1.688061         2.217344         0.269428
 H         4.707225         0.319088         1.240380
 H         2.057884        -0.589272         2.283422
