19
Iteration:  3957
 C         3.764836        -2.595077         0.237430
 C         3.016207        -1.280729         0.179875
 O         2.456498        -0.670330        -1.008353
 C         1.546304         0.230703        -0.111139
 C         0.067619         0.230328        -0.428134
 C         2.343848         1.534705        -0.090529
 O         3.727023         1.283661         0.577473
 C         3.515482        -0.092473         1.003475
 C         2.003706        -0.527707         1.147624
 H         3.183048        -3.405563        -0.131566
 H         4.797301        -2.458059        -0.070246
 H         3.822596        -3.006303         1.255465
 H        -0.060293        -0.705385        -0.930631
 H        -0.458960         0.215436         0.565954
 H        -0.340908         1.042417        -1.107997
 H         2.529271         2.014106        -1.054027
 H         1.863921         2.354677         0.528711
 H         4.249288        -0.231480         1.761218
 H         1.436998        -1.033515         1.923793
