19
Iteration:  1285
 C         3.701049        -2.610327         0.301381
 C         3.214562        -1.173611         0.148552
 O         2.280617        -0.747161        -0.908338
 C         1.607127         0.160500         0.141422
 C         0.016897        -0.030611         0.310830
 C         2.090459         1.592883        -0.192694
 O         3.523451         1.241115        -0.135845
 C         3.738922         0.111386         0.695607
 C         2.405997        -0.391940         1.168553
 H         3.635830        -2.893565         1.335693
 H         3.021860        -3.253104        -0.272290
 H         4.734489        -2.651863        -0.093855
 H        -0.540733         0.825213        -0.094584
 H        -0.353720        -0.835472        -0.319643
 H        -0.126823        -0.299451         1.396639
 H         1.758685         1.895909        -1.200868
 H         1.726932         2.328941         0.626642
 H         4.619410         0.172560         1.335197
 H         2.408776        -0.496978         2.195646
