19
Iteration:  2087charge 0 multiplicity 1
 C         3.837460        -2.540195        -0.152539
 C         3.153995        -1.145056         0.058818
 O         2.405314        -0.531446        -1.012888
 C         1.577020         0.171965        -0.034167
 C         0.077480         0.156610        -0.383299
 C         2.239867         1.526473         0.173632
 O         3.539669         1.226484         0.600914
 C         3.563870        -0.121453         1.087032
 C         2.136761        -0.621794         1.226397
 H         3.921471        -3.211934         0.750647
 H         3.393295        -3.066815        -0.976679
 H         4.921811        -2.388616        -0.428106
 H        -0.512098        -0.256758         0.449227
 H        -0.311127         1.164386        -0.627565
 H        -0.104860        -0.436993        -1.288511
 H         2.094234         2.171853        -0.754486
 H         1.704519         1.920195         1.097875
 H         4.304066        -0.413433         1.773864
 H         1.483474        -1.120275         2.000173
