19
Iteration:  4342charge 0 multiplicity 1
 C         3.790279        -2.525963         0.252658
 C         3.094720        -1.279603         0.151336
 O         2.376505        -0.714836        -1.086763
 C         1.588130         0.162524        -0.050844
 C         0.185230         0.369234        -0.434000
 C         2.260702         1.577069        -0.042568
 O         3.569007         1.246489         0.544233
 C         3.487448        -0.100872         1.086864
 C         2.098633        -0.702330         1.126412
 H         3.498053        -3.394797        -0.316696
 H         4.888628        -2.366478        -0.114704
 H         3.793747        -2.620859         1.366215
 H        -0.464958         0.025156         0.457421
 H         0.033551         1.444197        -0.665043
 H        -0.185343        -0.101920        -1.350824
 H         2.511487         1.911140        -1.073210
 H         1.794426         2.420639         0.608267
 H         4.345770        -0.181792         1.772051
 H         1.639946        -1.056127         2.027079
