19
Iteration:  2506
 C         4.047569        -2.410734        -0.193657
 C         3.154833        -1.254793         0.067387
 O         2.449425        -0.622001        -1.016223
 C         1.532451         0.170846        -0.058877
 C         0.066566         0.461180        -0.426293
 C         2.149854         1.441328         0.123177
 O         3.494771         1.241602         0.772266
 C         3.440451        -0.166433         1.171660
 C         2.125835        -0.844368         1.105060
 H         3.552378        -3.194265        -0.591685
 H         4.996362        -2.206451        -0.696641
 H         4.194670        -2.929325         0.738684
 H        -0.618272         0.178907         0.366695
 H        -0.047560         1.536560        -0.497737
 H        -0.124179         0.070638        -1.499902
 H         2.400527         1.809282        -0.930084
 H         1.683622         2.230022         0.693839
 H         4.196293        -0.280328         2.020249
 H         1.494410        -1.304163         1.959311
