19
Iteration:  2493charge 0 multiplicity 1
 C         4.009493        -2.453943        -0.133473
 C         3.153322        -1.187753         0.102351
 O         2.449882        -0.544053        -1.082130
 C         1.568181         0.094609        -0.112477
 C         0.060335         0.390513        -0.345237
 C         2.276209         1.476273         0.141629
 O         3.462385         1.160047         0.745078
 C         3.473789        -0.165339         1.206439
 C         2.063184        -0.715462         1.029185
 H         3.580267        -3.038939        -0.897576
 H         4.986154        -2.092155        -0.528596
 H         4.282863        -2.865373         0.831656
 H        -0.521625         0.003322         0.466116
 H        -0.146459         1.401869        -0.575831
 H        -0.395185        -0.255818        -1.142010
 H         2.463278         1.980886        -0.862387
 H         1.540945         2.082828         0.759140
 H         4.041196        -0.465935         2.042573
 H         1.367486        -1.281518         1.756259
