19
Iteration:  3631
 C         3.850825        -2.538886         0.039552
 C         3.048086        -1.302930         0.176272
 O         2.446006        -0.640689        -1.016677
 C         1.591279         0.200910        -0.091587
 C         0.087644         0.301599        -0.467113
 C         2.302005         1.529910        -0.035957
 O         3.606443         1.146934         0.594926
 C         3.459237        -0.105327         1.212363
 C         2.026343        -0.551536         1.170705
 H         3.341254        -3.417973        -0.042208
 H         4.433870        -2.192517        -0.903354
 H         4.718010        -2.599329         0.751031
 H         0.095050         0.688849        -1.511858
 H        -0.379778        -0.670686        -0.309218
 H        -0.363464         1.073122         0.209703
 H         2.571043         1.931625        -1.023246
 H         1.788505         2.335100         0.581675
 H         4.117028        -0.148804         2.063104
 H         1.501269        -0.918262         1.998056
