19
Iteration:  3375
 C         3.666461        -2.508123         0.034045
 C         3.043878        -1.143996         0.222457
 O         2.544130        -0.497174        -1.017832
 C         1.592623         0.184745        -0.083280
 C         0.194975         0.083173        -0.495163
 C         2.289879         1.589913         0.085156
 O         3.621206         1.166529         0.458776
 C         3.534992        -0.067596         1.196702
 C         2.000238        -0.697497         1.199526
 H         2.990736        -3.165321        -0.621042
 H         4.629027        -2.314702        -0.320059
 H         3.692338        -3.048427         0.950759
 H         0.250306         0.053513        -1.587676
 H        -0.344755        -0.870224        -0.095745
 H        -0.393086         1.019622        -0.308680
 H         2.252532         2.126526        -0.861951
 H         1.951172         2.198555         0.913788
 H         4.124239        -0.325595         2.089454
 H         1.383335        -1.072292         1.984859
