19
Iteration:  1715charge 0 multiplicity 1
 C         3.673706        -2.501037        -0.045509
 C         3.209443        -1.131792         0.088624
 O         2.236445        -0.728325        -0.888351
 C         1.552730         0.093980         0.112071
 C         0.081484         0.109481        -0.163476
 C         2.097777         1.433461        -0.005670
 O         3.559104         1.394951         0.369151
 C         3.746796        -0.000590         0.918092
 C         2.417862        -0.565522         1.184344
 H         4.135340        -2.488954        -1.077005
 H         4.569979        -2.767978         0.530195
 H         2.996715        -3.323397        -0.056886
 H        -0.263386        -0.721810        -0.776498
 H        -0.393729         0.005099         0.798753
 H        -0.218631         1.104681        -0.538207
 H         1.929453         1.942669        -0.971907
 H         1.594908         1.987524         0.816946
 H         4.632628        -0.208052         1.444173
 H         1.979634        -0.853377         2.187131
