19
Iteration:   353charge 0 multiplicity 1
 C         3.469171        -2.591424         0.183517
 C         3.086173        -1.179775         0.131064
 O         2.387583        -0.651253        -1.026289
 C         1.588420         0.211802         0.177153
 C         0.160805        -0.231701         0.265086
 C         2.066157         1.633900        -0.040529
 O         3.554374         1.329959        -0.052514
 C         3.816047         0.094818         0.709130
 C         2.432410        -0.453330         1.209777
 H         4.303081        -2.724102         0.889882
 H         2.683303        -3.356473         0.625163
 H         3.895782        -2.821423        -0.793918
 H        -0.376224         0.132210        -0.616487
 H         0.082541        -1.315844         0.175865
 H        -0.307687         0.165001         1.174811
 H         1.819682         1.993364        -1.055556
 H         1.581475         2.329541         0.735857
 H         4.785513         0.063430         1.395135
 H         2.085353        -0.532890         2.193963
