19
Iteration:  1960charge 0 multiplicity 1
 C         3.957818        -2.376650        -0.085495
 C         3.156649        -1.235543         0.145664
 O         2.247728        -0.745833        -0.988298
 C         1.488478         0.120719         0.094802
 C         0.121190         0.346909        -0.288296
 C         2.175384         1.489350         0.111102
 O         3.530505         1.200948         0.489031
 C         3.619239        -0.069497         0.987255
 C         2.198186        -0.664556         1.103366
 H         4.525345        -2.260574        -0.996834
 H         4.760472        -2.661774         0.651975
 H         3.355277        -3.291406         0.048274
 H        -0.139008        -0.294000        -1.165784
 H        -0.424755         0.028223         0.644620
 H        -0.063477         1.408093        -0.492846
 H         2.086656         1.961049        -0.875166
 H         1.712501         2.315416         0.805821
 H         4.458130        -0.183821         1.612369
 H         1.715608        -1.045928         2.047132
