19
Iteration:  3828charge 0 multiplicity 1
 C         3.853063        -2.575614         0.139533
 C         3.142521        -1.244250         0.227352
 O         2.450372        -0.700072        -0.915160
 C         1.588504         0.176957        -0.169344
 C         0.054278         0.300367        -0.412488
 C         2.370762         1.591149        -0.068008
 O         3.626657         1.160584         0.552194
 C         3.458199        -0.067794         1.038661
 C         1.962671        -0.526969         1.120302
 H         3.107146        -3.344709         0.272621
 H         4.190776        -2.962355        -0.960566
 H         4.624622        -2.608628         0.916731
 H        -0.415547        -0.298012         0.313745
 H        -0.305188         1.355211        -0.187865
 H        -0.170499        -0.053358        -1.451004
 H         2.434465         1.996695        -1.099707
 H         1.698719         2.211689         0.613626
 H         4.111145        -0.253726         1.917790
 H         1.387475        -0.666934         2.073141
