19
Iteration:  2615charge 0 multiplicity 1
 C         3.553532        -2.572264        -0.090858
 C         3.277096        -1.136836         0.023623
 O         2.560343        -0.527992        -1.040853
 C         1.589433         0.215309        -0.099831
 C         0.144540         0.050235        -0.457802
 C         2.141080         1.530740         0.241816
 O         3.509854         1.313642         0.841851
 C         3.572710        -0.089413         1.108929
 C         2.198287        -0.678810         1.002487
 H         2.724599        -3.030902        -0.629018
 H         4.424451        -2.676753        -0.823296
 H         3.866217        -2.983468         0.907181
 H         0.216376        -0.427216        -1.436553
 H        -0.451048        -0.607139         0.136479
 H        -0.362852         1.052745        -0.588391
 H         2.397909         2.280779        -0.623872
 H         1.473838         2.153529         0.941596
 H         4.293215        -0.310602         1.974491
 H         1.632597        -1.245626         1.706597
