19
Iteration:  4268
 C         3.503683        -2.600877        -0.019790
 C         3.015852        -1.257312         0.267420
 O         2.591778        -0.516798        -0.884520
 C         1.670069         0.218647        -0.063673
 C         0.153357        -0.024724        -0.538926
 C         2.285767         1.565742        -0.061582
 O         3.628059         1.252099         0.500690
 C         3.546708        -0.042519         1.191316
 C         2.110008        -0.471490         1.227833
 H         2.663875        -3.341621         0.008225
 H         3.755679        -2.537634        -1.078914
 H         4.371686        -3.014842         0.574758
 H        -0.537335        -0.310762         0.336363
 H        -0.166459         0.841827        -1.045891
 H        -0.052724        -0.861120        -1.218653
 H         2.477148         1.845030        -1.108402
 H         1.744045         2.245926         0.530188
 H         4.216581        -0.205933         2.050602
 H         1.646298        -0.472653         2.182986
