19
Iteration:   901charge 0 multiplicity 1
 C         3.566810        -2.649273         0.144348
 C         3.186393        -1.193565         0.078823
 O         2.246407        -0.783711        -0.819511
 C         1.622264         0.055765         0.181931
 C         0.142759         0.022009         0.179596
 C         2.058105         1.499122        -0.132801
 O         3.473046         1.484644        -0.046644
 C         3.776084         0.180550         0.697337
 C         2.549199        -0.518641         1.242178
 H         3.912187        -2.923181         1.208895
 H         2.687408        -3.258686        -0.088703
 H         4.340328        -3.024449        -0.606704
 H        -0.274940         0.328917        -0.771135
 H        -0.329519        -0.854361         0.670908
 H        -0.151384         0.855495         0.812005
 H         1.693987         1.819607        -1.108989
 H         1.580925         2.226249         0.661960
 H         4.720222         0.308173         1.191361
 H         2.540028        -0.845300         2.284634
