19
Iteration:  4011
 C         3.745255        -2.604929        -0.004066
 C         3.103922        -1.272153         0.315496
 O         2.462755        -0.697773        -0.840287
 C         1.567901         0.220789        -0.039634
 C         0.084846         0.253104        -0.607797
 C         2.307702         1.560827        -0.119830
 O         3.572083         1.239257         0.532863
 C         3.524594        -0.110861         1.181435
 C         2.094221        -0.511868         1.248177
 H         2.951471        -3.392112        -0.106320
 H         4.120143        -2.445465        -1.045833
 H         4.602373        -2.925523         0.647317
 H        -0.585206        -0.490660        -0.228565
 H        -0.257431         1.327260        -0.447285
 H         0.098742         0.110773        -1.734574
 H         2.656527         1.833608        -1.098936
 H         1.949155         2.429605         0.503107
 H         4.337600        -0.013212         1.844514
 H         1.478026        -0.926427         2.028405
