19
Iteration:  1872
 C         3.642086        -2.583355        -0.093732
 C         3.106031        -1.207904         0.060301
 O         2.483484        -0.509788        -0.980156
 C         1.527953         0.198923         0.021640
 C         0.047552        -0.100242        -0.123114
 C         2.235872         1.594304         0.096897
 O         3.594275         1.300111         0.448502
 C         3.651705        -0.031142         0.966684
 C         2.232731        -0.519834         1.120062
 H         4.357493        -2.782990         0.713435
 H         2.796244        -3.283985        -0.015576
 H         4.126334        -2.593220        -1.105729
 H        -0.017397        -1.168635         0.160054
 H        -0.727788         0.508099         0.431836
 H        -0.318490        -0.100066        -1.164954
 H         2.114897         2.241736        -0.793833
 H         1.870956         2.162059         1.053005
 H         4.389528        -0.128550         1.786244
 H         1.893733        -1.102064         1.963424
