19
Iteration:  3980charge 0 multiplicity 1
 C         3.711004        -2.472418         0.085542
 C         3.092156        -1.218636         0.234364
 O         2.318959        -0.756368        -0.957587
 C         1.602884         0.229514        -0.097004
 C         0.190447         0.205490        -0.505755
 C         2.393042         1.480586        -0.098374
 O         3.605692         1.198020         0.543574
 C         3.457610        -0.046205         1.176364
 C         2.115274        -0.558727         1.192132
 H         3.029913        -3.222677        -0.135727
 H         4.659611        -2.189426        -0.474485
 H         4.092526        -2.916634         0.964267
 H        -0.156761        -0.737149        -0.746379
 H        -0.347100         0.795702         0.325652
 H         0.109317         0.855709        -1.437750
 H         2.563118         1.936948        -1.073219
 H         1.868202         2.324617         0.469072
 H         4.166792        -0.188489         1.956397
 H         1.518333        -0.575339         2.045205
