19
Iteration:  2980
 C         3.520266        -2.662981        -0.021836
 C         3.261770        -1.223132         0.161559
 O         2.567544        -0.529096        -0.887337
 C         1.640080         0.120025        -0.015985
 C         0.114505         0.154336        -0.606914
 C         2.224156         1.507332         0.065402
 O         3.534989         1.303411         0.558967
 C         3.560898        -0.007753         1.169813
 C         2.175985        -0.534548         1.160072
 H         2.490756        -3.056213        -0.508018
 H         4.322790        -2.922097        -0.722031
 H         3.521104        -3.285442         0.946728
 H         0.136022        -0.218058        -1.642869
 H        -0.343932        -0.635222        -0.104265
 H        -0.498620         1.048583        -0.372638
 H         2.183277         1.973789        -0.968046
 H         1.659610         2.030849         0.871106
 H         4.355771        -0.105901         1.932102
 H         1.625222        -0.853962         1.997091
