19
Iteration:  2120
 C         4.032761        -2.379755        -0.155481
 C         3.073573        -1.210964         0.082527
 O         2.412233        -0.550237        -0.986105
 C         1.520702         0.191326        -0.012024
 C         0.074591         0.296285        -0.362195
 C         2.291191         1.488572         0.135966
 O         3.586542         1.153364         0.562480
 C         3.475640        -0.186426         1.161086
 C         1.998763        -0.770993         1.172091
 H         4.928138        -2.424225         0.504969
 H         3.634237        -3.319109        -0.440343
 H         4.269778        -1.975905        -1.147590
 H        -0.541182         0.588065         0.512397
 H        -0.202376         1.001576        -1.175616
 H        -0.238673        -0.711308        -0.616425
 H         2.284826         2.150075        -0.812519
 H         1.808897         2.104816         0.978586
 H         4.185890        -0.250537         1.942513
 H         1.332183        -1.360709         1.886135
