19
Iteration:  2150
 C         3.977430        -2.380985        -0.253248
 C         3.109863        -1.196512         0.034660
 O         2.366949        -0.665554        -1.022152
 C         1.543245         0.164871         0.006334
 C         0.086852         0.289058        -0.437147
 C         2.276577         1.497193         0.134658
 O         3.543678         1.261130         0.837722
 C         3.503681        -0.216426         1.084764
 C         2.071474        -0.738871         1.153231
 H         5.030281        -2.175603        -0.116177
 H         3.674937        -3.305848         0.150668
 H         3.810627        -2.369674        -1.294812
 H        -0.355527         1.172009         0.023939
 H        -0.032127         0.214741        -1.530879
 H        -0.371201        -0.610617         0.053539
 H         2.488983         2.057577        -0.760987
 H         1.727938         2.189419         0.732260
 H         4.056255        -0.249226         1.973004
 H         1.616501        -0.884376         2.164261
