19
Iteration:  3640charge 0 multiplicity 1
 C         3.870283        -2.520778         0.047724
 C         3.103540        -1.212043         0.229239
 O         2.462803        -0.717502        -1.006246
 C         1.573737         0.201586        -0.056303
 C         0.078631         0.351308        -0.473606
 C         2.324319         1.538956         0.009486
 O         3.610927         1.180808         0.570326
 C         3.446919        -0.090293         1.143020
 C         2.027577        -0.611376         1.136301
 H         3.198281        -3.346157        -0.056337
 H         4.244169        -2.624710        -0.965687
 H         4.664484        -2.809116         0.806675
 H        -0.080420         0.833930        -1.470536
 H        -0.394962        -0.566227        -0.608247
 H        -0.519391         0.922820         0.230470
 H         2.491352         1.939032        -0.954919
 H         1.715741         2.205230         0.694291
 H         4.003047        -0.196734         2.071630
 H         1.452679        -1.068420         1.914389
