19
Iteration:  1431
 C         3.893480        -2.447549         0.104760
 C         3.071685        -1.190161         0.134573
 O         2.127326        -0.791294        -0.903448
 C         1.484869         0.195919         0.115187
 C         0.057134         0.027243         0.263101
 C         2.136893         1.495895        -0.207990
 O         3.670305         1.240504         0.013371
 C         3.747402        -0.013146         0.769676
 C         2.297694        -0.399869         1.246757
 H         4.957511        -2.210838         0.028454
 H         3.756033        -2.787259         1.143663
 H         3.606845        -3.119910        -0.655228
 H        -0.249973        -1.013716         0.557493
 H        -0.335794         0.797032         0.991609
 H        -0.277049         0.239868        -0.768177
 H         1.966908         1.874564        -1.243555
 H         1.878947         2.176384         0.643930
 H         4.692231         0.002995         1.281626
 H         2.014282        -0.576470         2.241256
