19
Iteration:   862
 O        -3.197871         2.021896         2.985237
 C        -2.166665         1.913025         2.034971
 C        -0.789774         1.347339         2.103550
 C        -0.686661         1.255046         0.474932
 O        -0.109175         0.031205        -0.081703
 C        -0.117268         2.545009        -0.096581
 C        -1.032152         3.681249         0.322363
 C        -2.343731         2.970779         0.836370
 C        -2.242180         1.434622         0.636365
 H        -3.858895         1.357588         2.831609
 H         0.010969         1.963353         2.553514
 H        -0.674258         0.378296         2.530419
 H        -0.843744        -0.495526        -0.484167
 H         0.861722         2.592702         0.335909
 H        -0.212221         2.447705        -1.197762
 H        -0.706312         4.500236         0.922141
 H        -1.252136         4.257084        -0.587158
 H        -3.337756         3.410584         0.937028
 H        -3.102309         0.859509         0.321729
