19
Iteration:   599charge 0 multiplicity 1
 O        -3.119524         1.930990         3.043050
 C        -2.209893         1.833710         1.899167
 C        -0.847633         1.414875         2.103803
 C        -0.784605         1.262698         0.485752
 O        -0.198744         0.030674         0.148775
 C        -0.133254         2.494023        -0.197582
 C        -0.933776         3.707028         0.469625
 C        -2.267872         3.007805         0.782451
 C        -2.293966         1.509711         0.382929
 H        -3.524996         1.026191         3.257580
 H        -0.045167         2.003122         2.598748
 H        -0.904776         0.451679         2.587476
 H        -0.016247        -0.058681        -0.802130
 H         0.930987         2.581991        -0.058167
 H        -0.301224         2.593624        -1.322643
 H        -0.527803         4.089513         1.400516
 H        -1.145749         4.598771        -0.148182
 H        -3.258808         3.429673         0.882927
 H        -3.039991         1.020646        -0.211500
