19
Iteration:   374
 O        -3.093554         1.789980         2.994173
 C        -2.282113         1.888347         1.913871
 C        -0.829722         1.504114         2.062119
 C        -0.737144         1.330434         0.505367
 O        -0.336399        -0.000598         0.124736
 C        -0.025928         2.535907        -0.116910
 C        -1.026532         3.622742         0.321876
 C        -2.295638         3.024908         0.840248
 C        -2.218444         1.592670         0.438731
 H        -2.964215         0.893074         3.276144
 H        -0.155161         2.123987         2.620258
 H        -0.747178         0.501065         2.426686
 H         0.289087        -0.409676         0.768372
 H         1.057803         2.650312         0.186862
 H        -0.208010         2.399648        -1.206496
 H        -0.669033         4.372860         0.992650
 H        -1.182456         4.299652        -0.460979
 H        -3.281902         3.385290         0.565839
 H        -2.860955         1.046330        -0.293897
