19
Iteration:  3987charge 0 multiplicity 1
 O        -3.091810         1.981211         3.095457
 C        -2.176792         1.959869         1.985637
 C        -0.768291         1.390481         2.009053
 C        -0.730215         1.189861         0.413476
 O        -0.151069         0.055519        -0.133874
 C        -0.083288         2.492180         0.136465
 C        -1.175288         3.673919         0.299241
 C        -2.361102         2.912000         0.796708
 C        -2.330973         1.374823         0.539599
 H        -3.427139         2.820399         3.371605
 H        -0.081617         2.091097         2.601175
 H        -0.917750         0.301866         2.495760
 H         0.633530         0.422941        -0.542919
 H         0.848310         2.778657         0.756909
 H         0.318491         2.378961        -0.895967
 H        -0.638835         4.326822         1.009381
 H        -1.371650         4.146608        -0.660857
 H        -3.377089         3.203195         0.583779
 H        -3.170300         0.895146         0.093371
