19
Iteration:  2869
 O        -3.017689         1.987368         3.116728
 C        -2.174051         1.865009         1.979900
 C        -0.661398         1.315176         2.085435
 C        -0.688021         1.347489         0.499742
 O        -0.365376         0.072000        -0.003150
 C        -0.133836         2.575009        -0.079277
 C        -1.162677         3.698848         0.337630
 C        -2.336120         2.850481         0.833837
 C        -2.204013         1.394327         0.462073
 H        -3.791601         2.433203         2.835621
 H        -0.094244         2.007926         2.702477
 H        -0.667086         0.289050         2.433828
 H         0.045425         0.042130        -0.880649
 H         0.920207         2.811444         0.078225
 H        -0.315098         2.418752        -1.151650
 H        -0.845505         4.364195         1.163474
 H        -1.291912         4.094171        -0.670912
 H        -3.337899         3.182092         0.819995
 H        -2.748791         0.729379        -0.205878
