19
Iteration:  4140charge 0 multiplicity 1
 O        -3.115254         1.819388         2.928783
 C        -2.170516         1.894224         1.975016
 C        -0.758607         1.433589         2.073436
 C        -0.759682         1.295430         0.509123
 O        -0.152001         0.055454         0.046161
 C        -0.095904         2.522735        -0.113511
 C        -1.094021         3.624219         0.307431
 C        -2.288914         2.961469         0.931740
 C        -2.359174         1.487464         0.547856
 H        -3.447066         2.645372         3.200934
 H        -0.019635         2.113303         2.478591
 H        -0.419929         0.360989         2.331580
 H        -0.505970        -0.084050        -0.860933
 H         0.894683         2.769000         0.437685
 H         0.082290         2.389830        -1.158419
 H        -0.758654         4.423949         1.051889
 H        -1.360805         4.311617        -0.500491
 H        -3.266643         3.421696         0.947736
 H        -3.176667         0.890702         0.064936
