19
Iteration:  2501
 O        -3.083888         2.177026         3.047125
 C        -2.080627         1.959386         2.067715
 C        -0.685481         1.246739         2.101069
 C        -0.703139         1.298831         0.423801
 O        -0.213153         0.090891        -0.123516
 C        -0.139622         2.585090        -0.108713
 C        -1.188161         3.577758         0.242279
 C        -2.313670         2.850870         0.968246
 C        -2.275691         1.387954         0.567431
 H        -3.404204         1.408402         3.626400
 H         0.031613         1.787161         2.696132
 H        -0.908108         0.242953         2.325105
 H        -0.934443        -0.422800        -0.603940
 H         0.771280         2.949336         0.409928
 H        -0.005047         2.337198        -1.168730
 H        -0.828969         4.478214         0.856354
 H        -1.770423         3.928069        -0.662864
 H        -3.329479         3.326250         1.097210
 H        -2.801118         0.692008        -0.133517
