19
Iteration:  4210
 O        -3.073786         1.920451         3.111021
 C        -2.214039         1.886002         1.992170
 C        -0.752140         1.368836         1.993352
 C        -0.771269         1.286764         0.413191
 O        -0.228378         0.076736         0.012978
 C        -0.056182         2.560366        -0.075571
 C        -1.114635         3.626803         0.364804
 C        -2.321258         2.896181         0.890603
 C        -2.302122         1.434402         0.443617
 H        -3.818474         2.432348         2.897889
 H        -0.152889         2.140320         2.602101
 H        -0.475113         0.404450         2.417135
 H         0.725652         0.030402        -0.108891
 H         0.936715         2.562802         0.247765
 H        -0.026602         2.368079        -1.198852
 H        -0.726901         4.343991         1.038128
 H        -1.463217         4.308289        -0.425867
 H        -3.277471         3.484822         0.849889
 H        -3.088428         1.128814        -0.202255
