19
Iteration:  2143charge 0 multiplicity 1
 O        -3.021685         2.059622         2.961904
 C        -2.065074         1.951055         2.026739
 C        -0.694682         1.297153         2.149115
 C        -0.755984         1.249091         0.462894
 O        -0.272749         0.016967        -0.176290
 C        -0.107973         2.569550        -0.060049
 C        -1.259631         3.768350         0.236817
 C        -2.354221         2.913603         0.881435
 C        -2.274184         1.428202         0.679355
 H        -3.487976         1.168548         3.016395
 H         0.109964         1.641773         2.750050
 H        -1.066072         0.267438         2.384158
 H         0.416788        -0.358101         0.399922
 H         0.912237         2.496211         0.389002
 H         0.104733         2.424605        -1.102812
 H        -0.727026         4.573275         0.715729
 H        -1.551929         4.109468        -0.815684
 H        -3.265779         3.469346         1.043852
 H        -3.171448         0.749421         0.487771
