19
Iteration:  1042
 O        -2.905896         1.965769         3.182866
 C        -2.276379         1.977596         1.921180
 C        -0.913220         1.407387         2.056960
 C        -0.808210         1.185478         0.509647
 O        -0.105786         0.095535        -0.074197
 C        -0.134827         2.524581        -0.090807
 C        -1.098290         3.602723         0.374861
 C        -2.332580         2.930443         0.745525
 C        -2.259198         1.462887         0.425993
 H        -3.891986         2.166864         2.993839
 H        -0.136996         1.963089         2.581409
 H        -0.880204         0.421003         2.491804
 H        -0.316847        -0.548443         0.608934
 H         0.898166         2.564871         0.275571
 H         0.085457         2.362491        -1.165256
 H        -0.636557         3.983664         1.312681
 H        -1.299923         4.471111        -0.230254
 H        -3.266927         3.436857         0.528971
 H        -3.063564         0.986810        -0.098218
