19
Iteration:  3916charge 0 multiplicity 1
 O        -3.262724         1.655485         2.822124
 C        -2.159892         1.991695         2.066902
 C        -0.631113         1.543653         2.043885
 C        -0.719097         1.323386         0.542708
 O        -0.261393        -0.000981         0.053640
 C        -0.163249         2.477524        -0.294083
 C        -1.031075         3.666904         0.366673
 C        -2.280013         3.022479         0.873229
 C        -2.302683         1.530581         0.615171
 H        -3.172260         2.093219         3.661560
 H         0.018100         2.360346         2.327276
 H        -0.414220         0.616408         2.438148
 H         0.389527        -0.235350         0.727124
 H         0.862947         2.398291        -0.083259
 H        -0.317270         2.435833        -1.370928
 H        -0.538622         4.135360         1.221962
 H        -1.223818         4.455124        -0.402341
 H        -3.194290         3.607169         0.873731
 H        -3.167423         0.856707         0.372425
