19
Iteration:  4459charge 0 multiplicity 1
 O        -3.165753         1.798684         2.908357
 C        -2.138269         1.950725         2.026950
 C        -0.637339         1.582310         1.955671
 C        -0.714188         1.296558         0.465086
 O        -0.347988        -0.071298         0.102144
 C        -0.119424         2.510325        -0.187016
 C        -1.063834         3.682601         0.446619
 C        -2.365807         3.009503         0.935464
 C        -2.287788         1.494264         0.522814
 H        -3.265681         0.874896         2.889555
 H         0.168081         2.279052         2.129781
 H        -0.424235         0.612041         2.532078
 H         0.647657        -0.116160         0.001765
 H         0.950020         2.670105         0.106227
 H        -0.039000         2.540231        -1.211103
 H        -0.675136         4.385373         1.149889
 H        -1.436333         4.423536        -0.253426
 H        -3.328826         3.365267         0.851000
 H        -3.047601         0.888577         0.013860
