19
Iteration:   761
 O        -3.211254         1.842521         2.900350
 C        -2.176650         1.903182         2.037814
 C        -0.777493         1.425683         2.181740
 C        -0.694162         1.254695         0.522764
 O        -0.296865         0.039397        -0.008830
 C        -0.212856         2.525156        -0.251568
 C        -0.917967         3.677730         0.377106
 C        -2.243475         2.956269         0.886361
 C        -2.216473         1.475456         0.538679
 H        -3.745131         2.646751         2.920892
 H        -0.125216         2.048476         2.752136
 H        -0.842685         0.423822         2.677494
 H         0.667668         0.022071         0.030943
 H         0.848433         2.693631        -0.361955
 H        -0.517681         2.434881        -1.264070
 H        -0.470798         3.963639         1.325205
 H        -1.251059         4.564679        -0.259892
 H        -3.274111         3.407485         0.929517
 H        -2.873234         0.936078        -0.169038
