19
Iteration:   971charge 0 multiplicity 1
 O        -3.171682         1.703415         2.919779
 C        -2.121898         1.928088         1.984788
 C        -0.693524         1.467036         2.181643
 C        -0.688471         1.356240         0.567695
 O        -0.410914         0.040481        -0.028199
 C        -0.122427         2.466337        -0.149292
 C        -1.050707         3.664380         0.249427
 C        -2.261929         2.982532         0.824427
 C        -2.280738         1.562648         0.589441
 H        -3.238707         2.472427         3.587041
 H        -0.034106         2.295876         2.523995
 H        -0.445220         0.498873         2.643409
 H         0.349316        -0.331800         0.413533
 H         0.937183         2.642361        -0.033479
 H        -0.097190         2.190816        -1.187513
 H        -0.705515         4.343758         1.040060
 H        -1.285263         4.360975        -0.597311
 H        -3.216051         3.481135         0.711643
 H        -2.897000         0.886457         0.012371
