19
Iteration:  3289charge 0 multiplicity 1
 O        -3.025722         1.813281         3.093956
 C        -2.172967         1.904239         1.961684
 C        -0.747635         1.553205         2.129871
 C        -0.742000         1.273723         0.494052
 O        -0.218210         0.063348         0.023845
 C        -0.063299         2.520198        -0.142406
 C        -1.111410         3.626332         0.204367
 C        -2.294568         2.912560         0.869055
 C        -2.388151         1.481686         0.560814
 H        -3.920297         2.088552         2.771839
 H        -0.120980         2.415322         2.271926
 H        -0.334941         0.701518         2.790197
 H        -0.526305        -0.233897        -0.844401
 H         0.934098         2.644815         0.303204
 H        -0.030629         2.157997        -1.173931
 H        -0.588322         4.353580         0.894277
 H        -1.492826         4.157857        -0.692363
 H        -3.238503         3.521680         0.945369
 H        -3.110751         0.777298         0.290727
