19
Iteration:  3347
 O        -2.993193         1.752255         3.070821
 C        -2.246584         1.855912         1.959200
 C        -0.729985         1.508912         2.156579
 C        -0.731703         1.406747         0.531451
 O        -0.199396        -0.020194         0.239075
 C        -0.244059         2.557059        -0.405094
 C        -1.014832         3.647443         0.324982
 C        -2.349482         3.006737         0.860588
 C        -2.303187         1.493607         0.460425
 H        -3.891385         2.066310         3.032997
 H         0.026230         2.172655         2.613978
 H        -0.555589         0.502876         2.508375
 H        -0.225794        -0.279447        -0.721835
 H         0.825032         2.699557        -0.410744
 H        -0.594487         2.364228        -1.409513
 H        -0.155186         3.918244         0.984472
 H        -1.326322         4.568434        -0.256412
 H        -3.312727         3.517223         0.772706
 H        -2.844989         0.912881        -0.350591
