19
Iteration:  3277
 O        -3.050539         1.870146         3.153696
 C        -2.238384         1.902552         2.040794
 C        -0.716023         1.489609         2.070427
 C        -0.792731         1.278177         0.546168
 O        -0.218686         0.069533         0.008267
 C        -0.101041         2.525233        -0.149478
 C        -1.042085         3.651602         0.156135
 C        -2.301914         2.940397         0.870076
 C        -2.277976         1.364475         0.554559
 H        -3.939764         2.100213         3.024370
 H        -0.057071         2.215688         2.574114
 H        -0.645235         0.476830         2.597911
 H        -0.438942         0.238762        -0.958795
 H         0.903610         2.634491         0.314647
 H         0.106548         2.550153        -1.251348
 H        -0.804622         4.595542         0.666012
 H        -1.487261         3.959504        -0.798145
 H        -3.259748         3.418856         0.619981
 H        -2.999847         0.822597        -0.066910
