19
Iteration:  4385charge 0 multiplicity 1
 O        -3.121491         1.991408         2.969337
 C        -2.149677         1.891320         1.976024
 C        -0.695602         1.341248         2.030907
 C        -0.768737         1.247718         0.494249
 O        -0.176309         0.065028        -0.037106
 C        -0.143476         2.507262        -0.145850
 C        -1.082410         3.716264         0.336400
 C        -2.390707         3.001373         0.892125
 C        -2.325138         1.414721         0.571768
 H        -3.436941         1.084045         3.272081
 H         0.068441         1.970876         2.495597
 H        -0.763044         0.402184         2.515891
 H         0.730049         0.064884         0.241399
 H         0.768265         2.568803         0.404999
 H         0.081513         2.535922        -1.289620
 H        -0.541647         4.213156         1.136305
 H        -1.430479         4.464796        -0.425488
 H        -3.383968         3.326557         1.035226
 H        -3.241000         0.911041         0.184386
