19
Iteration:  1533charge 0 multiplicity 1
 O        -3.124670         1.942339         3.020423
 C        -2.138880         1.958943         1.985675
 C        -0.728100         1.354732         2.009304
 C        -0.730188         1.258422         0.524746
 O        -0.280296        -0.012811         0.044959
 C        -0.097051         2.551360        -0.034881
 C        -1.116377         3.740685         0.271911
 C        -2.361099         2.904969         0.777386
 C        -2.280561         1.474344         0.507761
 H        -2.913886         1.504727         3.912165
 H         0.122975         1.849400         2.556770
 H        -0.862783         0.358009         2.410267
 H         0.566966         0.209026        -0.334262
 H         0.901005         2.775126         0.380366
 H        -0.086690         2.337008        -1.126060
 H        -0.627847         4.433496         0.977651
 H        -1.308748         4.229891        -0.669738
 H        -3.362266         3.407737         0.759732
 H        -3.109638         0.980075        -0.054555
