19
Iteration:  4944
 O        -3.189015         1.938890         2.990235
 C        -2.171650         1.866839         2.016045
 C        -0.719045         1.440213         2.066530
 C        -0.768574         1.282374         0.450528
 O        -0.086417         0.044114         0.045595
 C        -0.193717         2.482947        -0.139260
 C        -1.048796         3.711837         0.319246
 C        -2.293870         2.912217         0.939812
 C        -2.372811         1.507581         0.476787
 H        -3.007767         1.102020         3.578462
 H        -0.003833         2.142945         2.691667
 H        -0.694599         0.401939         2.299619
 H        -0.036540        -0.047013        -0.951610
 H         0.846076         2.695644         0.271347
 H        -0.152547         2.332889        -1.208080
 H        -0.633520         4.277491         1.122323
 H        -1.316419         4.435079        -0.491380
 H        -3.239869         3.466736         0.986675
 H        -3.113315         0.897988        -0.063672
