19
Iteration:  1746charge 0 multiplicity 1
 O        -2.955828         2.004279         3.051865
 C        -2.153432         1.948195         1.879542
 C        -0.804803         1.448719         2.046272
 C        -0.769246         1.238337         0.495298
 O        -0.236397         0.042075        -0.025207
 C        -0.159596         2.567418         0.103665
 C        -1.097160         3.653718         0.293033
 C        -2.348503         2.909573         0.675582
 C        -2.395377         1.389875         0.493109
 H        -2.831613         1.112518         3.534864
 H         0.018023         2.061253         2.530042
 H        -0.892936         0.478147         2.597283
 H         0.645369        -0.199375         0.260406
 H         0.758359         2.568446         0.731005
 H         0.144857         2.468410        -0.970757
 H        -0.928768         4.268554         1.213512
 H        -1.363611         4.379687        -0.530793
 H        -3.292781         3.436847         0.736494
 H        -3.027549         0.699682        -0.014894
