19
Iteration:  1166charge 0 multiplicity 1
 O        -3.085844         1.955037         3.067773
 C        -2.272255         1.932082         1.935820
 C        -0.708831         1.486373         1.997751
 C        -0.838220         1.253091         0.474648
 O        -0.183134        -0.033442         0.051264
 C        -0.132409         2.574588        -0.133824
 C        -1.027886         3.696778         0.396860
 C        -2.331207         2.940856         0.813657
 C        -2.299917         1.440203         0.444391
 H        -3.019172         0.977602         3.337760
 H         0.075796         2.104140         2.262059
 H        -0.611054         0.471442         2.481273
 H        -0.125658        -0.569440         0.839413
 H         0.868902         2.420786         0.290307
 H        -0.119575         2.620384        -1.232368
 H        -0.560367         4.193567         1.246175
 H        -1.068013         4.477106        -0.368278
 H        -3.313782         3.419238         0.685925
 H        -3.078271         1.136181        -0.239881
