19
Iteration:  2770charge 0 multiplicity 1
 O        -3.079796         1.732106         2.959413
 C        -2.158838         1.987655         1.939961
 C        -0.609995         1.512865         2.051102
 C        -0.700614         1.233212         0.471449
 O        -0.283717         0.020974         0.030194
 C        -0.277338         2.532457        -0.225398
 C        -1.067706         3.680263         0.381605
 C        -2.345470         2.988524         0.882230
 C        -2.225439         1.525061         0.594268
 H        -2.957415         2.301569         3.691429
 H         0.244341         2.072724         2.359791
 H        -0.618330         0.600494         2.606879
 H        -0.906061        -0.625332         0.353325
 H         0.801898         2.707563        -0.220569
 H        -0.575992         2.301904        -1.261488
 H        -0.490967         3.952213         1.294561
 H        -1.288900         4.591150        -0.209963
 H        -3.358578         3.366754         0.767434
 H        -2.985563         1.035495        -0.001572
