19
Iteration:  2804
 O        -3.153442         1.799339         3.045882
 C        -2.100855         1.795556         1.998254
 C        -0.703792         1.432757         2.103719
 C        -0.700379         1.310545         0.462186
 O        -0.322690         0.065404         0.058741
 C        -0.202319         2.546801        -0.309895
 C        -1.060793         3.713214         0.237822
 C        -2.261590         2.993880         0.974359
 C        -2.335663         1.539760         0.487109
 H        -2.625011         1.326430         3.716325
 H        -0.036784         2.163361         2.506708
 H        -0.566028         0.450225         2.483274
 H         0.075900        -0.306229         0.847437
 H         0.894477         2.683640        -0.155682
 H        -0.320661         2.450176        -1.405874
 H        -0.449970         4.199508         1.041124
 H        -1.361538         4.412164        -0.553599
 H        -3.151120         3.541358         0.953027
 H        -3.045632         1.131004        -0.190539
