19
Iteration:   316
 O        -3.172800         2.026790         2.919026
 C        -2.128368         1.938085         1.956779
 C        -0.762134         1.372974         2.203597
 C        -0.748686         1.182427         0.608332
 O        -0.127720         0.104306        -0.112640
 C        -0.114388         2.546117        -0.130280
 C        -1.068787         3.665125         0.354369
 C        -2.322306         2.936282         0.905313
 C        -2.315415         1.406106         0.492250
 H        -3.993547         2.004202         2.328844
 H         0.140844         1.813449         2.631890
 H        -0.924777         0.441107         2.640283
 H         0.002411        -0.716506         0.403007
 H         0.927005         2.696171         0.130428
 H        -0.098134         2.370501        -1.216897
 H        -0.671402         4.154858         1.277577
 H        -1.458233         4.263639        -0.457477
 H        -3.243954         3.558472         0.960094
 H        -2.925738         0.638639         0.073463
