19
Iteration:  1295
 O        -3.160743         1.810867         3.019496
 C        -2.166668         1.989224         1.959690
 C        -0.677414         1.503379         2.032161
 C        -0.712922         1.218684         0.524775
 O        -0.324041        -0.046371         0.161843
 C        -0.092195         2.528031        -0.207344
 C        -1.044844         3.735950         0.372834
 C        -2.321160         3.033855         0.813026
 C        -2.246377         1.500242         0.468750
 H        -3.133816         0.865382         3.129378
 H         0.125265         2.194883         2.483785
 H        -0.542985         0.696671         2.646694
 H        -0.762799        -0.423924        -0.605363
 H         0.915937         2.924652        -0.078228
 H        -0.427374         2.413537        -1.271172
 H        -0.437024         4.036241         1.243221
 H        -1.081388         4.581100        -0.297111
 H        -3.355280         3.377230         0.636173
 H        -2.986574         0.869741         0.013900
