19
Iteration:   925charge 0 multiplicity 1
 O        -3.097316         1.853284         3.035485
 C        -2.236179         1.947650         1.925104
 C        -0.753005         1.454875         2.039758
 C        -0.738081         1.258153         0.473654
 O        -0.288559        -0.030606         0.210167
 C        -0.167903         2.537273        -0.192284
 C        -1.002303         3.646410         0.369623
 C        -2.363024         2.970543         0.837518
 C        -2.240088         1.568067         0.400943
 H        -2.859926         1.075848         3.586149
 H         0.013923         2.131274         2.430916
 H        -0.752815         0.432737         2.569681
 H         0.445922        -0.003309        -0.450028
 H         0.878895         2.729322        -0.037571
 H        -0.196404         2.518099        -1.258757
 H        -0.395920         4.103556         1.160434
 H        -1.173363         4.438579        -0.390667
 H        -3.302249         3.529885         0.757567
 H        -3.066162         1.162094        -0.181604
