19
Iteration:  4943
 O        -3.189353         1.933372         2.987362
 C        -2.164972         1.871644         2.025453
 C        -0.716733         1.443539         2.058086
 C        -0.772435         1.286655         0.459566
 O        -0.088657         0.045066         0.049381
 C        -0.185265         2.475491        -0.133982
 C        -1.050914         3.712019         0.307900
 C        -2.297258         2.912173         0.943685
 C        -2.385174         1.499912         0.473306
 H        -2.961231         1.122889         3.540677
 H         0.026910         2.110121         2.676274
 H        -0.701172         0.382161         2.270350
 H        -0.024910        -0.037803        -0.938543
 H         0.832610         2.686932         0.283427
 H        -0.113290         2.395909        -1.206426
 H        -0.656523         4.319898         1.133655
 H        -1.297265         4.436568        -0.492238
 H        -3.217066         3.474184         0.993051
 H        -3.148379         0.918022        -0.090925
