19
Iteration:  4191charge 0 multiplicity 1
 O        -2.982845         1.968722         3.153934
 C        -2.220892         1.807495         1.910912
 C        -0.870279         1.301353         2.130741
 C        -0.717997         1.253452         0.538870
 O        -0.220514         0.106821        -0.029545
 C        -0.116895         2.568925        -0.098801
 C        -1.087746         3.675613         0.294082
 C        -2.340712         2.919420         0.866069
 C        -2.277304         1.438945         0.384120
 H        -3.712774         2.528728         2.927192
 H        -0.144433         1.902426         2.837608
 H        -1.082759         0.332738         2.529069
 H         0.537339         0.314121        -0.567488
 H         0.813478         2.898560         0.417401
 H         0.009149         2.381293        -1.213802
 H        -0.669369         4.390110         1.051371
 H        -1.410714         4.210378        -0.615692
 H        -3.316299         3.403815         1.031309
 H        -2.764950         0.720268        -0.331727
