19
Iteration:  3709charge 0 multiplicity 1
 O        -3.213742         1.695320         2.849412
 C        -2.185716         1.988201         1.992806
 C        -0.571926         1.554023         2.103538
 C        -0.692422         1.271970         0.540654
 O        -0.249087         0.024100         0.178707
 C        -0.298874         2.460174        -0.301180
 C        -1.054785         3.708803         0.361561
 C        -2.298266         2.997281         0.797448
 C        -2.178936         1.432516         0.681367
 H        -3.043708         2.380760         3.593129
 H         0.164002         2.322847         2.397848
 H        -0.604890         0.662059         2.597756
 H        -0.267226         0.171392        -0.814947
 H         0.709842         2.584779        -0.606781
 H        -0.965111         2.368841        -1.198554
 H        -0.517633         4.051088         1.206440
 H        -1.129646         4.491637        -0.373936
 H        -3.249955         3.578998         0.872534
 H        -2.899704         0.787290         0.130082
