19
Iteration:  4685
 O        -3.053566         1.976993         3.012422
 C        -2.163457         1.953414         1.920159
 C        -0.753858         1.401828         2.041279
 C        -0.813378         1.230540         0.447262
 O        -0.151484         0.038103         0.080118
 C        -0.120716         2.538367        -0.022992
 C        -1.105826         3.680608         0.371368
 C        -2.372592         2.886936         0.778541
 C        -2.374822         1.424410         0.515716
 H        -2.633071         1.235004         3.552352
 H         0.052408         2.043125         2.427773
 H        -0.746410         0.253524         2.262529
 H        -0.049648         0.036983        -0.872423
 H         0.821072         2.750796         0.453783
 H         0.043680         2.717865        -1.101656
 H        -0.687636         4.312417         1.225090
 H        -1.223939         4.470162        -0.374782
 H        -3.279239         3.416329         0.855132
 H        -3.143955         1.007589        -0.158967
