19
Iteration:  2127charge 0 multiplicity 1
 O        -2.987300         1.990863         3.162285
 C        -2.083945         2.002889         1.984990
 C        -0.754793         1.246599         2.112212
 C        -0.761308         1.221969         0.539567
 O        -0.313206         0.074922        -0.107965
 C        -0.104834         2.586717        -0.068388
 C        -1.143770         3.666966         0.149975
 C        -2.325227         2.929102         0.813219
 C        -2.320700         1.415766         0.558376
 H        -3.824111         1.485791         2.868473
 H         0.129088         1.838306         2.584080
 H        -0.863310         0.269780         2.566650
 H         0.620527        -0.020517         0.038204
 H         0.762717         2.983141         0.465279
 H         0.148412         2.531534        -1.167514
 H        -0.999485         4.509290         0.863775
 H        -1.515813         4.223304        -0.697002
 H        -3.331340         3.377559         0.887667
 H        -2.961426         0.790268         0.005738
