19
Iteration:    82charge 0 multiplicity 1
 O        -3.309668         1.890990         2.857947
 C        -2.145369         1.941727         2.016474
 C        -0.618095         1.490072         2.166231
 C        -0.659633         1.269629         0.625101
 O        -0.138080         0.094518         0.019292
 C        -0.195394         2.458697        -0.123124
 C        -1.181369         3.703864         0.171268
 C        -2.264424         2.939447         0.864323
 C        -2.233133         1.396134         0.563824
 H        -3.099690         1.999688         3.775078
 H         0.246645         2.257283         2.554250
 H        -0.425172         0.524069         2.689983
 H        -0.641068        -0.710916         0.216967
 H         0.852944         2.705889        -0.085325
 H        -0.276785         2.142146        -1.130622
 H        -0.720842         4.513262         0.812832
 H        -1.507360         4.241049        -0.763560
 H        -3.303522         3.266189         0.753394
 H        -2.972052         0.780195         0.089776
