19
Iteration:  1968charge 0 multiplicity 1
 O        -2.943865         2.030740         3.098171
 C        -2.142062         1.938262         1.934875
 C        -0.777606         1.391655         2.027831
 C        -0.659402         1.248618         0.516450
 O        -0.297113        -0.046085         0.008691
 C        -0.111789         2.598694        -0.013739
 C        -1.259983         3.698234         0.315731
 C        -2.333305         2.900583         0.752174
 C        -2.308715         1.462542         0.415337
 H        -3.228287         1.058155         3.273219
 H         0.135262         1.896396         2.433979
 H        -0.880112         0.279448         2.393221
 H         0.337779        -0.356732         0.642032
 H         0.887623         2.821999         0.479162
 H         0.043243         2.504822        -1.094918
 H        -0.877631         4.404441         1.092045
 H        -1.679756         4.247988        -0.599033
 H        -3.283116         3.455012         0.776142
 H        -3.063514         0.955905        -0.130882
