19
Iteration:   113charge 0 multiplicity 1
 O        -3.078145         1.808774         3.023931
 C        -2.259563         1.971589         1.972591
 C        -0.745036         1.541490         2.154379
 C        -0.651956         1.290550         0.544017
 O        -0.110643         0.104459         0.014977
 C        -0.021769         2.460017        -0.101604
 C        -1.183945         3.614903         0.154294
 C        -2.349778         2.957932         0.829620
 C        -2.321528         1.414260         0.567157
 H        -3.806006         2.528287         3.082290
 H        -0.130368         2.106574         2.674866
 H        -0.821354         0.504552         2.441710
 H        -0.801065        -0.581410         0.061253
 H         0.883210         2.839642         0.340505
 H         0.158028         2.244862        -1.121147
 H        -0.694093         4.317716         0.867262
 H        -1.431794         4.150351        -0.776824
 H        -3.359567         3.353470         0.526451
 H        -3.140384         0.792284         0.200149
