19
Iteration:  2399
 O        -3.137461         1.847064         2.962828
 C        -2.149601         1.957854         2.059190
 C        -0.666169         1.576345         2.127221
 C        -0.694590         1.319412         0.509772
 O        -0.271056         0.003901         0.019884
 C        -0.321038         2.429001        -0.400163
 C        -0.991270         3.611408         0.315788
 C        -2.334383         3.035900         1.034275
 C        -2.228756         1.460812         0.672631
 H        -3.634718         1.059103         2.804919
 H         0.086122         2.337026         2.425905
 H        -0.347536         0.644552         2.554509
 H         0.327297         0.077136        -0.733338
 H         0.721911         2.360765        -0.650454
 H        -0.712250         2.200617        -1.408540
 H        -0.393952         4.161538         1.092543
 H        -1.209416         4.334353        -0.461716
 H        -3.284254         3.501839         1.129916
 H        -2.969563         0.899667         0.072317
