19
Iteration:  1052
 O        -2.953487         1.959964         3.214088
 C        -2.264493         1.935796         1.898800
 C        -0.828685         1.439407         2.081063
 C        -0.713958         1.241729         0.489781
 O        -0.133397         0.048661        -0.049022
 C        -0.083007         2.494843        -0.133623
 C        -1.048624         3.669427         0.399635
 C        -2.408699         2.918162         0.709626
 C        -2.335272         1.442254         0.450011
 H        -3.933257         2.247250         3.153122
 H        -0.057285         1.993706         2.659895
 H        -1.135985         0.528756         2.496829
 H        -0.343202        -0.870890         0.136032
 H         0.876345         2.634846         0.354578
 H        -0.128034         2.536050        -1.228368
 H        -0.791632         4.146408         1.369520
 H        -1.112736         4.496802        -0.319214
 H        -3.397083         3.367573         0.637539
 H        -2.960639         0.961969        -0.282924
