19
Iteration:  2898
 O        -3.056276         1.890480         3.052430
 C        -2.206918         1.936257         1.945587
 C        -0.760225         1.336177         1.986743
 C        -0.763029         1.240181         0.453835
 O        -0.052886         0.009733         0.038552
 C        -0.165597         2.546320        -0.141201
 C        -1.154496         3.720097         0.334180
 C        -2.338444         2.963344         0.892069
 C        -2.371066         1.479533         0.584174
 H        -2.766883         2.687774         3.583711
 H        -0.108053         2.066889         2.477121
 H        -0.859853         0.308838         2.457961
 H        -0.466375        -0.334363        -0.808157
 H         0.852421         2.732879         0.201841
 H        -0.068564         2.436205        -1.236942
 H        -0.771246         4.289221         1.178500
 H        -1.237964         4.330218        -0.579045
 H        -3.314396         3.418839         0.992955
 H        -2.971005         0.870102        -0.022651
