19
Iteration:  2045
 O        -3.203393         1.816715         2.866609
 C        -2.087517         1.942610         1.986304
 C        -0.680986         1.522210         2.137515
 C        -0.690332         1.276017         0.547499
 O        -0.181526         0.048003         0.117379
 C        -0.317587         2.522595        -0.344294
 C        -1.042727         3.647806         0.321712
 C        -2.217809         2.949762         0.921786
 C        -2.281469         1.454130         0.596502
 H        -2.866074         2.062507         3.774704
 H        -0.014133         2.252997         2.624689
 H        -0.599261         0.424955         2.395942
 H        -0.877739        -0.391170        -0.422331
 H         0.750768         2.877064        -0.493021
 H        -0.715611         2.310422        -1.341186
 H        -0.559666         3.910003         1.259394
 H        -1.344746         4.511731        -0.349117
 H        -3.218770         3.381752         0.961106
 H        -3.148630         0.918905         0.203184
