19
Iteration:  3856charge 0 multiplicity 1
 O        -3.117839         1.758255         2.971885
 C        -2.146931         2.028822         1.935418
 C        -0.714464         1.368496         2.076957
 C        -0.742954         1.326852         0.525622
 O        -0.165651         0.036131         0.139803
 C        -0.154326         2.551139        -0.188603
 C        -1.087393         3.697723         0.265231
 C        -2.349099         2.936949         0.855419
 C        -2.298483         1.507008         0.515391
 H        -3.226222         2.427297         3.637024
 H         0.230619         1.734387         2.564861
 H        -0.871663         0.230658         2.402934
 H        -0.802195        -0.522787        -0.304633
 H         0.912189         2.654561         0.276627
 H        -0.036564         2.452664        -1.301180
 H        -0.643797         4.252977         1.158520
 H        -1.191341         4.477608        -0.504770
 H        -3.311103         3.501029         0.711499
 H        -3.175817         0.953432         0.109269
