19
Iteration:  3184charge 0 multiplicity 1
 O        -3.121131         1.841190         3.029257
 C        -2.238497         1.906431         2.015455
 C        -0.760478         1.594353         2.176877
 C        -0.695097         1.265360         0.589538
 O        -0.300047         0.029788        -0.031102
 C        -0.176021         2.508262        -0.241548
 C        -1.068352         3.649888         0.272693
 C        -2.286863         2.901464         0.799570
 C        -2.204800         1.349719         0.634791
 H        -2.907271         2.675077         3.595235
 H        -0.118425         2.470096         2.505656
 H        -0.480724         0.654995         2.636405
 H         0.050310         0.378648        -0.849762
 H         0.926717         2.625256        -0.191716
 H        -0.302189         2.385686        -1.378225
 H        -0.472374         4.123118         1.049949
 H        -1.237709         4.442410        -0.476096
 H        -3.349721         3.232149         0.585407
 H        -2.796149         0.836482        -0.045857
