19
Iteration:  3604
 O        -3.132537         2.030710         2.922235
 C        -2.090138         1.970970         1.977321
 C        -0.670554         1.202204         2.050923
 C        -0.701169         1.269186         0.517493
 O        -0.170889         0.064850         0.003470
 C        -0.174863         2.576600        -0.074399
 C        -1.247220         3.695298         0.278362
 C        -2.343549         2.863804         0.920460
 C        -2.243541         1.380236         0.597779
 H        -3.193316         2.893551         3.323514
 H         0.094713         1.814791         2.528751
 H        -0.692147         0.190840         2.625442
 H        -0.578851        -0.309075        -0.819073
 H         0.814666         2.853111         0.407988
 H         0.145941         2.474194        -1.054718
 H        -0.893337         4.563805         0.925337
 H        -1.534948         4.144917        -0.681120
 H        -3.212585         3.466425         1.012705
 H        -3.019068         0.754432         0.067173
