19
Iteration:  2003
 O        -3.142193         1.810664         3.019240
 C        -2.204550         1.985213         1.986823
 C        -0.691666         1.505337         2.036417
 C        -0.745267         1.317743         0.520248
 O        -0.203141         0.091286         0.014998
 C        -0.155396         2.459736        -0.208411
 C        -1.106385         3.612331         0.289824
 C        -2.301354         2.971581         0.824391
 C        -2.297370         1.501178         0.553840
 H        -2.703186         1.334448         3.813090
 H        -0.037370         2.181790         2.608549
 H        -0.665523         0.458422         2.556106
 H        -0.185061        -0.625248         0.632082
 H         0.928526         2.546123         0.015047
 H        -0.249026         2.201208        -1.290632
 H        -0.392859         4.118621         0.968484
 H        -1.375914         4.397035        -0.460593
 H        -3.200505         3.588266         0.851693
 H        -3.153955         1.014829         0.074848
