19
Iteration:  4479charge 0 multiplicity 1
 O        -3.131207         1.839135         2.992741
 C        -2.156820         1.915268         1.971073
 C        -0.697793         1.489397         2.142084
 C        -0.664693         1.251849         0.529595
 O        -0.290732        -0.033779         0.010099
 C        -0.241479         2.582385        -0.193010
 C        -1.034629         3.706944         0.353361
 C        -2.313673         2.980825         0.827881
 C        -2.276492         1.480852         0.528442
 H        -3.511063         0.957707         2.806797
 H         0.016312         2.166853         2.630205
 H        -0.816674         0.504519         2.736291
 H         0.634672         0.137383        -0.276681
 H         0.896787         2.741620         0.042387
 H        -0.319489         2.385885        -1.316158
 H        -0.536278         4.299531         1.193817
 H        -1.172672         4.455913        -0.428246
 H        -3.236205         3.457295         0.888799
 H        -3.161441         0.993811         0.127441
