19
Iteration:  4069charge 0 multiplicity 1
 O        -3.148043         1.622260         2.852560
 C        -2.161125         1.944706         1.956527
 C        -0.684091         1.583791         1.970773
 C        -0.804120         1.263417         0.540874
 O        -0.153391         0.013540         0.204558
 C        -0.240622         2.442476        -0.159819
 C        -0.965977         3.685144         0.390903
 C        -2.319367         3.024011         0.861238
 C        -2.348456         1.600285         0.530577
 H        -3.111339         2.136838         3.644956
 H         0.067689         2.300882         2.333012
 H        -0.600818         0.743369         2.546953
 H        -0.273707        -0.061197        -0.767858
 H         0.779960         2.438668         0.047453
 H        -0.440746         2.290867        -1.277464
 H        -0.311542         4.201838         1.086188
 H        -1.139131         4.543740        -0.293343
 H        -3.274762         3.626088         0.831745
 H        -3.167899         0.946572         0.205943
