19
Iteration:  2535
 O        -2.959744         1.977939         3.064817
 C        -2.084365         1.976088         1.978817
 C        -0.744967         1.265505         2.060994
 C        -0.746086         1.224503         0.545625
 O        -0.118804         0.071311        -0.056289
 C        -0.253279         2.552004        -0.103460
 C        -1.135644         3.710773         0.199098
 C        -2.318114         3.042437         0.872911
 C        -2.440684         1.441650         0.591292
 H        -3.175800         0.999122         3.257856
 H         0.040717         1.680820         2.649663
 H        -0.891662         0.330906         2.581339
 H        -0.689914        -0.719093        -0.142927
 H         0.812365         2.751116         0.175389
 H        -0.156671         2.260669        -1.151220
 H        -0.725477         4.562033         0.823638
 H        -1.361196         4.241151        -0.781128
 H        -3.225512         3.651395         0.916888
 H        -3.261250         0.789363         0.153472
