19
Iteration:  3262
 O        -3.021480         1.908215         3.205656
 C        -2.163179         2.001357         1.973816
 C        -0.798803         1.337384         2.102643
 C        -0.658703         1.269775         0.517538
 O        -0.217867         0.062600         0.014701
 C        -0.114245         2.519725        -0.092576
 C        -1.230916         3.664317         0.142916
 C        -2.351021         2.914588         0.822400
 C        -2.237616         1.466174         0.559141
 H        -3.836308         2.263285         2.822991
 H         0.112743         1.761273         2.590388
 H        -0.919417         0.340224         2.383626
 H         0.094581         0.082928        -0.904143
 H         0.891319         2.760029         0.318169
 H         0.015717         2.161914        -1.158909
 H        -0.652049         4.384436         0.704862
 H        -1.528965         4.167521        -0.774449
 H        -3.363440         3.273027         0.819020
 H        -2.905889         1.070240        -0.258260
