19
Iteration:  2482charge 0 multiplicity 1
 O        -3.012094         2.060229         3.137646
 C        -2.187643         1.842321         2.004520
 C        -0.752694         1.434014         2.116777
 C        -0.716205         1.203311         0.575216
 O        -0.258308         0.120981        -0.166080
 C        -0.068581         2.509565        -0.094089
 C        -1.144842         3.670199         0.223004
 C        -2.328567         2.893018         0.806062
 C        -2.296227         1.411796         0.570891
 H        -2.922347         1.285758         3.808805
 H        -0.080558         2.235250         2.454359
 H        -0.575962         0.464914         2.692340
 H        -0.888811        -0.267269        -0.788736
 H         0.903277         2.579172         0.435435
 H         0.017755         2.295280        -1.158333
 H        -0.982667         4.472392         0.960982
 H        -1.284741         4.178058        -0.757785
 H        -3.336111         3.291759         0.704451
 H        -3.160264         0.881518         0.037691
