19
Iteration:  3874charge 0 multiplicity 1
 O        -3.114648         1.667667         3.008880
 C        -2.228996         1.854940         1.967408
 C        -0.782936         1.473946         2.074589
 C        -0.703957         1.297473         0.507824
 O        -0.207944         0.039336         0.156438
 C        -0.174710         2.504434        -0.273992
 C        -0.988520         3.728976         0.369028
 C        -2.307908         3.060784         0.728761
 C        -2.248321         1.565355         0.530064
 H        -3.001633         2.326290         3.685308
 H        -0.117221         2.264897         2.561807
 H        -0.716306         0.494274         2.481808
 H        -0.850914        -0.631110         0.399422
 H         0.848966         2.820549        -0.348151
 H        -0.533585         2.241123        -1.269088
 H        -0.487219         4.244958         1.170975
 H        -1.220953         4.495270        -0.364854
 H        -3.279413         3.551063         0.731535
 H        -2.831693         0.920304        -0.175698
