19
Iteration:  1586
 O        -3.126044         1.956464         3.045452
 C        -2.107886         1.996321         1.989744
 C        -0.701522         1.270871         2.114607
 C        -0.791810         1.204702         0.554711
 O        -0.325882         0.079477        -0.071624
 C        -0.057428         2.552346        -0.039368
 C        -1.149952         3.709388         0.182407
 C        -2.305181         3.002071         0.788218
 C        -2.223102         1.427418         0.615529
 H        -3.707390         1.118693         2.860684
 H         0.079850         1.843559         2.589254
 H        -0.676479         0.165090         2.496102
 H         0.559345         0.227467         0.303397
 H         0.880369         2.814777         0.511433
 H         0.181655         2.386815        -1.101409
 H        -0.845191         4.663085         0.569913
 H        -1.468924         3.895535        -0.847662
 H        -3.312591         3.471183         0.749181
 H        -3.000971         0.766495         0.181137
