19
Iteration:   286charge 0 multiplicity 1
 O        -3.199230         1.859880         3.085452
 C        -2.211054         1.953845         1.936958
 C        -0.750759         1.505622         2.116722
 C        -0.693307         1.269281         0.585726
 O        -0.194283         0.117487        -0.009278
 C        -0.072733         2.484748        -0.084369
 C        -1.020103         3.618945         0.347679
 C        -2.323038         2.896354         0.791945
 C        -2.213475         1.425673         0.419846
 H        -3.870496         2.493112         2.886502
 H         0.076009         1.975440         2.671799
 H        -0.821017         0.476926         2.482207
 H        -0.963953        -0.495426        -0.082110
 H         0.974217         2.715546         0.217328
 H        -0.113420         2.435604        -1.201117
 H        -0.701000         4.369426         1.030394
 H        -1.344335         4.094191        -0.550807
 H        -3.200964         3.495382         0.512722
 H        -2.897131         0.825319        -0.191065
