19
Iteration:  1397charge 0 multiplicity 1
 O        -3.064107         2.024152         3.014160
 C        -2.222854         1.863173         2.003453
 C        -0.703703         1.472239         2.032852
 C        -0.779855         1.303617         0.476260
 O        -0.393506         0.049165        -0.028194
 C         0.002411         2.554379         0.040291
 C        -1.119547         3.631084         0.294190
 C        -2.339556         2.887340         0.804897
 C        -2.255029         1.396702         0.429755
 H        -2.909412         1.251521         3.647673
 H         0.028261         2.222610         2.305276
 H        -0.594639         0.502112         2.671103
 H         0.565418        -0.213146         0.080035
 H         1.003084         2.402879         0.567286
 H         0.192739         2.690119        -1.022019
 H        -0.843723         4.257334         1.129489
 H        -1.194888         4.296186        -0.598637
 H        -3.368611         3.189971         0.739254
 H        -3.130082         0.810249         0.079268
