19
Iteration:   448charge 0 multiplicity 1
 O        -3.220488         1.882718         2.953621
 C        -2.257047         1.821478         1.975406
 C        -0.847077         1.312382         2.140066
 C        -0.754785         1.240972         0.600074
 O        -0.063782         0.035649         0.088745
 C        -0.145410         2.497027        -0.167026
 C        -0.936633         3.711782         0.329475
 C        -2.297692         3.034436         0.777613
 C        -2.366911         1.542313         0.471961
 H        -2.834879         2.351771         3.758275
 H        -0.066946         1.954989         2.708686
 H        -0.773492         0.331495         2.535471
 H         0.328040         0.407191        -0.721754
 H         0.905745         2.574576        -0.018338
 H        -0.405923         2.264558        -1.197767
 H        -0.461091         4.444431         1.064396
 H        -1.204455         4.393700        -0.511799
 H        -3.202365         3.644696         0.680725
 H        -3.054679         0.884067        -0.141044
