19
Iteration:  3147
 O        -3.101962         1.666083         2.821210
 C        -2.065439         2.036038         2.002654
 C        -0.711181         1.503628         1.953452
 C        -0.787312         1.284857         0.490761
 O        -0.179318        -0.065543         0.313487
 C        -0.219383         2.498328        -0.309750
 C        -1.084464         3.692519         0.265562
 C        -2.353209         3.097147         0.986103
 C        -2.273416         1.538326         0.611906
 H        -3.191764         2.180063         3.665663
 H         0.130384         1.997740         2.357944
 H        -0.717983         0.425069         2.355970
 H        -0.147811        -0.300915        -0.654391
 H         0.812072         2.721225        -0.065205
 H        -0.484416         2.307086        -1.317161
 H        -0.535725         4.387488         0.945617
 H        -1.523206         4.322074        -0.535864
 H        -3.323935         3.571371         1.063481
 H        -3.159602         0.840983         0.387097
