19
Iteration:   845charge 0 multiplicity 1
 O        -3.123343         1.938099         2.968784
 C        -2.206575         1.978116         1.963700
 C        -0.688302         1.378922         2.145630
 C        -0.754104         1.226958         0.583440
 O        -0.234242         0.123372        -0.023418
 C        -0.043898         2.536425        -0.080409
 C        -1.100609         3.665434         0.244838
 C        -2.244862         2.907957         0.872459
 C        -2.319968         1.459079         0.469298
 H        -3.422923         1.025654         3.096831
 H         0.027724         2.017852         2.735041
 H        -0.795623         0.368022         2.652375
 H        -0.958356        -0.541531        -0.034125
 H         0.928965         2.831625         0.433226
 H         0.015978         2.314677        -1.171156
 H        -0.622128         4.315738         1.064811
 H        -1.574303         4.314764        -0.524931
 H        -3.166292         3.485542         0.821428
 H        -2.985423         0.936967        -0.227576
