19
Iteration:  1995charge 0 multiplicity 1
 O        -3.064181         1.844945         2.995462
 C        -2.179941         1.920443         1.951947
 C        -0.711541         1.490614         2.096273
 C        -0.767320         1.287842         0.477940
 O        -0.209356         0.054866         0.020689
 C        -0.180685         2.457960        -0.180208
 C        -1.077398         3.711575         0.291757
 C        -2.357090         3.016409         0.802564
 C        -2.333420         1.476513         0.589264
 H        -2.683471         1.229905         3.708848
 H         0.141955         2.115749         2.457230
 H        -0.788048         0.469455         2.410324
 H        -0.084100        -0.490330         0.788019
 H         0.761423         2.486603         0.327610
 H        -0.003919         2.449657        -1.278817
 H        -0.552630         4.241220         1.121726
 H        -1.330797         4.292119        -0.556593
 H        -3.311471         3.536832         0.731055
 H        -3.067439         0.820090         0.031726
