19
Iteration:  2346charge 0 multiplicity 1
 O        -2.912453         2.067344         3.128255
 C        -2.182596         1.825812         1.911474
 C        -0.788602         1.397519         2.081850
 C        -0.698461         1.303700         0.483179
 O        -0.331323         0.005049        -0.013969
 C        -0.190978         2.608987        -0.155967
 C        -1.207640         3.651650         0.298764
 C        -2.309830         2.899779         0.922305
 C        -2.283897         1.443802         0.370426
 H        -2.783433         1.321444         3.718754
 H         0.038178         1.958747         2.546923
 H        -0.680041         0.421861         2.454048
 H         0.554333        -0.279701         0.237198
 H         0.786705         2.694869         0.412610
 H         0.029232         2.344701        -1.223872
 H        -0.655761         4.325497         1.073781
 H        -1.764053         4.223147        -0.493495
 H        -3.257350         3.374338         0.994258
 H        -3.007993         0.768902        -0.136572
