19
Iteration:  3460charge 0 multiplicity 1
 O        -3.052810         1.852890         3.025602
 C        -2.139364         2.041609         1.979030
 C        -0.754529         1.322105         2.032287
 C        -0.856253         1.229596         0.451780
 O        -0.033003         0.073076         0.051375
 C        -0.113787         2.526970        -0.049174
 C        -1.166756         3.619113         0.227318
 C        -2.410912         2.953497         0.838565
 C        -2.318715         1.497676         0.614316
 H        -3.168023         2.752043         3.512487
 H         0.197977         1.813728         2.291161
 H        -0.888234         0.437637         2.663095
 H        -0.346343        -0.048061        -0.860308
 H         0.928521         2.503824         0.405816
 H         0.009293         2.607599        -1.127337
 H        -0.727256         4.421631         0.852840
 H        -1.505127         3.917363        -0.765577
 H        -3.426924         3.391622         0.729396
 H        -3.149967         0.973888         0.304448
