19
Iteration:  2794
 O        -3.093671         1.794519         2.984061
 C        -2.152249         1.812950         1.931249
 C        -0.708962         1.458877         2.145667
 C        -0.735442         1.334842         0.419994
 O        -0.364278         0.022031         0.090078
 C        -0.196521         2.620867        -0.322109
 C        -1.037332         3.751484         0.315737
 C        -2.254639         2.915419         0.895633
 C        -2.239876         1.525432         0.520298
 H        -2.673679         1.641294         3.881726
 H        -0.049627         2.054511         2.784492
 H        -0.560897         0.452945         2.443588
 H        -0.308890        -0.501352         0.912805
 H         0.903865         2.682829        -0.467751
 H        -0.667644         2.437202        -1.313904
 H        -0.546415         4.349734         1.125372
 H        -1.530201         4.373995        -0.409964
 H        -3.046754         3.428261         1.322857
 H        -2.875803         0.856248         0.007937
