19
Iteration:  1156
 O        -3.091832         1.844614         3.048675
 C        -2.192671         1.974080         1.892525
 C        -0.766108         1.487895         2.010398
 C        -0.698117         1.277310         0.466182
 O        -0.241192         0.039703         0.066298
 C        -0.173857         2.471739        -0.140131
 C        -0.978871         3.675093         0.401944
 C        -2.354852         3.005651         0.780769
 C        -2.349672         1.441848         0.466538
 H        -2.891598         1.105441         3.695020
 H        -0.105362         2.233816         2.366730
 H        -0.620229         0.602331         2.731424
 H        -0.288845        -0.509653         0.825259
 H         0.904333         2.645434         0.218085
 H         0.018570         2.410713        -1.213751
 H        -0.472938         4.229741         1.203031
 H        -1.307629         4.354038        -0.432427
 H        -3.224128         3.669513         0.754830
 H        -3.097552         0.986423        -0.172655
