19
Iteration:  1710charge 0 multiplicity 1
 O        -3.250959         1.971975         2.990194
 C        -2.169640         1.877513         1.974306
 C        -0.694533         1.464296         2.161512
 C        -0.645503         1.371755         0.493242
 O        -0.348141        -0.029906         0.030980
 C        -0.124606         2.586930        -0.204161
 C        -1.087373         3.601680         0.302878
 C        -2.299660         2.898085         0.865305
 C        -2.175696         1.467857         0.512284
 H        -3.247205         1.124347         3.569541
 H        -0.064877         2.245105         2.761112
 H        -0.557094         0.458283         2.469293
 H         0.530497        -0.012303        -0.382208
 H         0.904977         2.819580         0.021414
 H        -0.158266         2.127799        -1.233858
 H        -0.459948         4.166267         1.034207
 H        -1.442181         4.317612        -0.427985
 H        -3.230416         3.479391         1.016645
 H        -2.916368         0.865515        -0.070330
