19
Iteration:  2797charge 0 multiplicity 1
 O        -3.113641         1.796982         3.010148
 C        -2.128271         1.796109         1.927577
 C        -0.724082         1.463385         2.141558
 C        -0.717722         1.310384         0.412972
 O        -0.358633         0.039650         0.087586
 C        -0.194838         2.611164        -0.312038
 C        -1.039166         3.758825         0.286423
 C        -2.250415         2.910437         0.915240
 C        -2.262619         1.547993         0.528760
 H        -2.674262         1.562447         3.790720
 H         0.011610         2.105525         2.751534
 H        -0.552535         0.376191         2.441127
 H        -0.209603        -0.415038         0.909749
 H         0.913170         2.650425        -0.420233
 H        -0.595870         2.435137        -1.340332
 H        -0.524897         4.222924         1.130905
 H        -1.531489         4.338472        -0.483909
 H        -3.129013         3.540850         1.288423
 H        -2.930007         0.897037        -0.084127
