19
Iteration:  3840charge 0 multiplicity 1
 O        -3.138223         1.849086         2.924728
 C        -2.087867         1.968266         2.012033
 C        -0.775167         1.381839         2.034847
 C        -0.749257         1.209356         0.514912
 O        -0.161794         0.038160         0.025850
 C        -0.090839         2.535129        -0.040557
 C        -1.148169         3.669713         0.268985
 C        -2.325244         2.976915         0.866920
 C        -2.303605         1.463912         0.586264
 H        -3.083237         2.773805         3.363328
 H         0.014285         2.019990         2.604115
 H        -0.754828         0.495893         2.574819
 H        -0.476060        -0.021961        -0.901382
 H         0.888629         2.670155         0.329825
 H        -0.030171         2.489474        -1.130560
 H        -0.730777         4.455917         0.849438
 H        -1.531358         4.079076        -0.684791
 H        -3.255763         3.463203         0.989275
 H        -3.055169         0.786808         0.239472
