19
Iteration:    43
 O        -3.091448         1.909887         3.120152
 C        -2.263706         1.939405         1.930419
 C        -0.731392         1.503122         2.025688
 C        -0.762985         1.292124         0.542810
 O        -0.064159         0.080439         0.193973
 C        -0.187340         2.508861        -0.191762
 C        -1.075225         3.671666         0.294915
 C        -2.343826         2.934994         0.694477
 C        -2.296460         1.392033         0.450854
 H        -3.643884         1.109575         2.876788
 H        -0.121349         2.238034         2.416485
 H        -0.619233         0.536345         2.496588
 H        -0.152286        -0.453165         0.998870
 H         0.950601         2.559076        -0.188136
 H        -0.354372         2.288848        -1.343242
 H        -0.669149         4.133702         1.192471
 H        -1.250920         4.533854        -0.340384
 H        -3.281683         3.353915         0.397810
 H        -3.010196         0.834150        -0.134020
