19
Iteration:  4178
 O        -2.959115         1.924496         3.082538
 C        -2.229253         1.967814         1.950949
 C        -0.876131         1.228009         2.128937
 C        -0.711955         1.278153         0.566339
 O        -0.181915         0.050228        -0.054926
 C        -0.140122         2.547885         0.018864
 C        -1.175769         3.725659         0.278070
 C        -2.306255         2.913805         0.776674
 C        -2.246187         1.423504         0.489602
 H        -3.764107         2.555377         3.095117
 H        -0.078909         1.889318         2.763459
 H        -0.890538         0.185592         2.397293
 H         0.409825         0.363643        -0.800511
 H         0.878642         2.599277         0.228926
 H        -0.157166         2.457600        -1.156039
 H        -0.751060         4.343242         1.037228
 H        -1.418407         4.358164        -0.596897
 H        -3.296337         3.449296         0.601072
 H        -3.021004         1.055791        -0.154119
