19
Iteration:  3328
 O        -3.006858         1.708455         3.083036
 C        -2.137747         1.954473         1.973007
 C        -0.770747         1.480398         2.032182
 C        -0.692909         1.268156         0.474170
 O        -0.272077        -0.004142         0.305258
 C        -0.226400         2.596472        -0.346009
 C        -1.068287         3.768903         0.348498
 C        -2.269665         2.926604         0.777688
 C        -2.203750         1.461010         0.492637
 H        -3.936241         1.981696         2.778447
 H        -0.081750         2.241347         2.550417
 H        -0.812570         0.549663         2.503805
 H        -0.804502        -0.314240        -0.453587
 H         0.836206         2.890383        -0.607308
 H        -0.716993         2.640064        -1.386556
 H        -0.539340         4.290030         1.221464
 H        -1.273112         4.624970        -0.313077
 H        -3.225599         3.401502         0.700797
 H        -3.113628         0.821134         0.144676
