19
Iteration:   377
 O        -3.103261         1.784194         2.960740
 C        -2.282622         1.902193         1.908166
 C        -0.772552         1.508310         2.035512
 C        -0.766103         1.322730         0.558377
 O        -0.349857         0.001517         0.122629
 C        -0.028609         2.527878        -0.119036
 C        -1.028184         3.633011         0.334146
 C        -2.304292         3.024924         0.848807
 C        -2.223215         1.583133         0.435771
 H        -2.935810         0.898475         3.385366
 H        -0.065127         2.156017         2.589525
 H        -0.705691         0.442687         2.563759
 H         0.300677        -0.402358         0.725289
 H         1.041506         2.610842         0.212262
 H        -0.215120         2.428313        -1.192229
 H        -0.614567         4.388821         1.009712
 H        -1.211794         4.360257        -0.508858
 H        -3.298822         3.346153         0.544956
 H        -2.768060         1.055181        -0.324428
