19
Iteration:  1196charge 0 multiplicity 1
 O        -3.072364         2.126810         2.995534
 C        -2.230445         1.875551         1.911804
 C        -0.728752         1.286043         2.158366
 C        -0.713133         1.265886         0.561752
 O        -0.164603         0.094974        -0.083625
 C        -0.225716         2.554279        -0.157779
 C        -1.057702         3.634788         0.360666
 C        -2.340387         2.948499         0.842004
 C        -2.278926         1.414343         0.518176
 H        -3.642681         1.337774         2.933319
 H         0.207787         1.777050         2.770194
 H        -0.792263         0.233402         2.432277
 H         0.039690        -0.528251         0.687370
 H         0.805538         2.576618         0.173829
 H        -0.397914         2.415883        -1.248124
 H        -0.604833         4.177552         1.227296
 H        -1.159108         4.331566        -0.442575
 H        -3.327830         3.446642         1.049096
 H        -3.012660         0.823829        -0.158415
