19
Iteration:   512charge 0 multiplicity 1
 O        -3.069341         1.877476         2.932889
 C        -2.240373         1.884832         1.925967
 C        -0.830739         1.472644         2.191197
 C        -0.699119         1.317897         0.620313
 O        -0.308240        -0.032035        -0.020461
 C        -0.071445         2.580658        -0.034544
 C        -1.064108         3.655796         0.347895
 C        -2.234442         2.855903         0.822155
 C        -2.235209         1.461849         0.490837
 H        -3.752372         2.563978         2.675200
 H        -0.043242         2.172385         2.641225
 H        -0.662991         0.453616         2.542601
 H        -0.533084         0.118326        -0.938533
 H         0.810787         2.932460         0.425757
 H         0.149861         2.433069        -1.088421
 H        -0.585202         4.390750         0.966285
 H        -1.384403         4.316604        -0.466859
 H        -3.142266         3.435178         0.723148
 H        -2.888106         0.768255        -0.076173
