19
Iteration:  1353
 O        -3.176787         2.046357         3.039538
 C        -2.166531         1.943533         2.045178
 C        -0.798918         1.322280         2.097732
 C        -0.701086         1.221076         0.470507
 O        -0.130321         0.025707         0.037644
 C        -0.219621         2.469711        -0.230056
 C        -1.044768         3.716810         0.373254
 C        -2.278009         2.955546         0.824774
 C        -2.301533         1.494252         0.565549
 H        -3.405562         1.123667         3.406054
 H        -0.165214         1.800293         2.829107
 H        -0.897487         0.163336         2.108479
 H         0.667713         0.277631        -0.500127
 H         0.880414         2.676653        -0.400273
 H        -0.569659         2.287403        -1.262255
 H        -0.466430         4.319548         1.053849
 H        -1.247181         4.303590        -0.547770
 H        -3.311826         3.319824         0.807349
 H        -3.025406         0.982921        -0.121008
