19
Iteration:  2685
 O        -2.869851         1.954829         3.048697
 C        -2.098004         1.990437         2.041208
 C        -0.727035         1.267717         2.047628
 C        -0.743451         1.264886         0.463475
 O        -0.319040        -0.036482         0.025903
 C        -0.134178         2.636083        -0.065234
 C        -1.177324         3.785542         0.261036
 C        -2.345399         2.933531         0.747285
 C        -2.355344         1.406198         0.598422
 H        -3.795300         1.686927         2.736961
 H         0.114705         1.726326         2.714534
 H        -0.939806         0.235769         2.383094
 H        -0.175999        -0.122500        -0.952205
 H         0.781022         2.756255         0.565285
 H         0.120695         2.712716        -1.160904
 H        -0.801289         4.343663         1.131790
 H        -1.622310         4.374430        -0.506089
 H        -3.252221         3.355895         1.062506
 H        -3.009277         0.704684         0.072367
