19
Iteration:  2760charge 0 multiplicity 1
 O        -3.093987         1.695839         3.020739
 C        -2.152751         2.022761         2.058535
 C        -0.611742         1.563810         2.012493
 C        -0.804839         1.278556         0.502932
 O        -0.194972         0.019559        -0.036034
 C        -0.207050         2.447591        -0.224990
 C        -1.049292         3.635532         0.403904
 C        -2.355251         3.005658         0.803170
 C        -2.288739         1.512890         0.571846
 H        -3.247441         2.532817         3.463368
 H         0.166409         2.217985         2.386971
 H        -0.638292         0.665202         2.561340
 H        -0.891068        -0.641398        -0.071932
 H         0.890139         2.530637        -0.109929
 H        -0.451152         2.423487        -1.312280
 H        -0.579912         4.139229         1.268993
 H        -1.121222         4.496195        -0.286928
 H        -3.293170         3.480911         0.944450
 H        -3.149205         0.977022         0.224233
