19
Iteration:  1721
 O        -3.157584         1.989692         3.037430
 C        -2.197413         1.903707         1.960643
 C        -0.758743         1.507185         2.098298
 C        -0.612268         1.235720         0.539501
 O        -0.342606         0.003594        -0.031192
 C        -0.026147         2.486892        -0.141728
 C        -1.166032         3.674222         0.340465
 C        -2.347966         2.904687         0.838584
 C        -2.211456         1.465398         0.483773
 H        -3.092696         1.252954         3.655951
 H         0.037758         2.228310         2.551855
 H        -0.725765         0.624429         2.689725
 H         0.543616        -0.202575        -0.284842
 H         0.963807         2.658637         0.261507
 H         0.004322         2.522558        -1.279982
 H        -0.899326         4.277735         1.230192
 H        -1.473849         4.352886        -0.449703
 H        -3.381248         3.314368         0.726587
 H        -2.721685         0.825381        -0.275234
