19
Iteration:  1552charge 0 multiplicity 1
 O        -3.119835         1.970335         3.035366
 C        -2.248404         1.937104         1.947096
 C        -0.840760         1.348927         2.177107
 C        -0.774958         1.196906         0.511915
 O        -0.209867         0.043691        -0.080243
 C        -0.059466         2.518430        -0.093965
 C        -1.138053         3.642563         0.181741
 C        -2.229989         3.040925         0.970416
 C        -2.254271         1.463432         0.505153
 H        -2.760231         1.316285         3.678990
 H        -0.209137         1.996092         2.751728
 H        -0.786340         0.246327         2.564281
 H         0.724451         0.133851        -0.228911
 H         0.891162         2.846742         0.442048
 H         0.148636         2.457790        -1.158995
 H        -0.857454         4.615091         0.552453
 H        -1.656306         3.816290        -0.777590
 H        -3.268474         3.474949         1.034445
 H        -2.986043         0.973856        -0.173444
