19
Iteration:  3973
 O        -3.099760         1.935018         3.142888
 C        -2.289940         1.902740         1.988111
 C        -0.762075         1.335251         2.070947
 C        -0.771245         1.271373         0.558281
 O        -0.218522         0.094969        -0.091258
 C        -0.019683         2.578384        -0.008581
 C        -1.089575         3.601579         0.261055
 C        -2.359602         2.864170         0.793687
 C        -2.291532         1.417721         0.476257
 H        -3.170558         2.916795         3.255462
 H         0.095368         1.960074         2.381044
 H        -0.672166         0.373065         2.521067
 H         0.644277         0.324720        -0.492834
 H         0.842556         2.612780         0.667579
 H         0.272355         2.613634        -1.032009
 H        -0.950989         4.504569         0.866112
 H        -1.347090         4.080960        -0.722679
 H        -3.325889         3.466083         0.721335
 H        -2.879044         0.881191        -0.300518
