19
Iteration:  2163
 O        -3.152242         2.013512         2.983766
 C        -2.125939         1.988621         2.050552
 C        -0.611732         1.289355         2.078904
 C        -0.716030         1.213057         0.555235
 O        -0.268712         0.110596        -0.143485
 C        -0.186378         2.528775        -0.109397
 C        -1.218477         3.617198         0.253217
 C        -2.266425         2.963905         0.931435
 C        -2.290072         1.486263         0.536862
 H        -2.920075         1.286072         3.668486
 H         0.325432         1.892379         2.328447
 H        -0.635807         0.350024         2.671806
 H        -0.122035        -0.555759         0.511630
 H         0.853693         2.830454         0.238779
 H        -0.102605         2.408282        -1.185642
 H        -0.651468         4.289505         0.899107
 H        -1.416820         4.032242        -0.754569
 H        -3.219299         3.504016         1.033225
 H        -2.981488         0.820904        -0.063329
