19
Iteration:  4906
 O        -3.020569         1.812830         3.056402
 C        -2.175928         1.982014         1.933536
 C        -0.803318         1.391792         2.129876
 C        -0.680633         1.304601         0.563989
 O        -0.275920        -0.039573         0.054441
 C        -0.094636         2.587938        -0.003084
 C        -1.175042         3.757688         0.175419
 C        -2.341900         2.979585         0.833231
 C        -2.272143         1.509376         0.413103
 H        -2.987045         0.965641         3.468589
 H        -0.016740         1.700781         2.808147
 H        -0.820027         0.251905         2.267172
 H        -0.068170         0.216314        -0.861288
 H         0.837184         2.659850         0.517281
 H         0.169619         2.589430        -1.112503
 H        -0.674471         4.495954         0.903445
 H        -1.401451         4.143326        -0.811328
 H        -3.351427         3.434453         0.964471
 H        -3.001809         0.895543        -0.102943
