19
Iteration:  4241
 O        -3.054830         1.673006         2.942377
 C        -2.132021         2.040859         1.961076
 C        -0.692092         1.475807         2.173728
 C        -0.719414         1.255302         0.543820
 O        -0.309656         0.002192        -0.037009
 C        -0.127260         2.566134        -0.178711
 C        -1.051992         3.712284         0.382940
 C        -2.392178         2.985042         0.805676
 C        -2.279882         1.515053         0.515930
 H        -3.746061         2.409088         3.156171
 H        -0.106561         2.261158         2.608794
 H        -0.713739         0.470381         2.672564
 H         0.525345        -0.355741         0.338834
 H         1.000270         2.583526        -0.130869
 H        -0.565944         2.217062        -1.150350
 H        -0.618208         4.129022         1.301619
 H        -1.360478         4.446255        -0.406394
 H        -3.373456         3.497963         0.633444
 H        -3.048827         0.804304         0.391445
