19
Iteration:  4921
 O        -3.066518         1.840654         2.998333
 C        -2.174484         1.936514         1.946560
 C        -0.777086         1.305678         1.997501
 C        -0.784012         1.261769         0.452373
 O        -0.217011         0.069371         0.112676
 C        -0.068849         2.599909        -0.047189
 C        -1.111484         3.647474         0.277794
 C        -2.344495         3.016147         0.860591
 C        -2.296480         1.540053         0.556470
 H        -2.806296         1.035275         3.475659
 H         0.007678         2.058368         2.448971
 H        -0.961117         0.356480         2.513993
 H         0.103385        -0.051839        -0.783262
 H         0.917022         2.840249         0.487903
 H         0.077538         2.385889        -1.078008
 H        -0.761786         4.546410         0.815966
 H        -1.524773         4.075482        -0.660859
 H        -3.298824         3.493023         0.707534
 H        -3.114531         0.891057         0.133988
