19
Iteration:  4516
 O        -3.156731         2.010990         3.075507
 C        -2.179333         1.899658         1.980140
 C        -0.786469         1.319899         2.114549
 C        -0.705808         1.248579         0.508094
 O        -0.161540         0.096486        -0.057974
 C        -0.175793         2.522070        -0.171954
 C        -1.076625         3.689579         0.305417
 C        -2.302545         2.919119         0.881717
 C        -2.293328         1.473896         0.496483
 H        -3.400318         1.119602         3.512883
 H         0.029198         1.771621         2.710949
 H        -0.858817         0.290759         2.327646
 H         0.773202        -0.057144        -0.118777
 H         0.732526         2.840361         0.215270
 H        -0.157701         2.474003        -1.171256
 H        -0.549720         4.241345         0.973850
 H        -1.433134         4.272206        -0.550583
 H        -3.342858         3.394171         0.908687
 H        -3.043379         0.946508        -0.101262
