19
Iteration:  2876
 O        -3.032631         1.980550         3.128610
 C        -2.211418         1.895091         1.948504
 C        -0.673278         1.310218         2.127136
 C        -0.681989         1.291014         0.453120
 O        -0.308109         0.051807         0.029230
 C        -0.150605         2.643255        -0.100652
 C        -1.134103         3.676881         0.327276
 C        -2.335727         2.784510         0.886560
 C        -2.219423         1.426357         0.412911
 H        -3.572718         2.747551         2.935960
 H        -0.005501         2.024453         2.669422
 H        -0.642103         0.191791         2.383063
 H        -0.167843         0.077775        -0.909476
 H         0.902632         2.797593         0.088226
 H        -0.162722         2.425504        -1.188072
 H        -0.735562         4.391139         1.049525
 H        -1.572263         4.275184        -0.534648
 H        -3.359082         3.195083         0.873752
 H        -2.929949         0.901615        -0.177386
