19
Iteration:    47
 O        -3.126085         1.923464         3.097117
 C        -2.202915         1.954325         1.934812
 C        -0.761027         1.520686         2.067146
 C        -0.753105         1.290467         0.528179
 O        -0.080753         0.074654         0.187778
 C        -0.166476         2.504893        -0.239576
 C        -1.098652         3.691376         0.297487
 C        -2.314068         2.902497         0.736896
 C        -2.289355         1.388745         0.425528
 H        -3.471027         1.049453         2.911408
 H        -0.000637         2.185658         2.565504
 H        -0.652306         0.487492         2.445249
 H        -0.201593        -0.474077         0.980846
 H         0.883472         2.639119        -0.113059
 H        -0.409942         2.302226        -1.229388
 H        -0.667810         4.109284         1.231870
 H        -1.348265         4.513947        -0.388919
 H        -3.316466         3.357442         0.484275
 H        -3.052375         0.711590        -0.087150
