19
Iteration:  2303
 O        -2.946942         2.017715         3.085233
 C        -2.084413         2.008787         2.004533
 C        -0.729248         1.326277         2.033823
 C        -0.740743         1.214833         0.491981
 O        -0.304240         0.045727        -0.148612
 C        -0.163740         2.535981        -0.031225
 C        -1.258573         3.657921         0.203136
 C        -2.369098         2.914578         0.811623
 C        -2.294077         1.473578         0.596903
 H        -2.868848         1.075334         3.433369
 H        -0.005281         1.901500         2.678873
 H        -0.791291         0.353909         2.498451
 H         0.407905        -0.261249         0.398690
 H         0.673201         2.969009         0.587093
 H         0.305470         2.629661        -1.052838
 H        -0.748964         4.383657         0.931606
 H        -1.439917         4.123866        -0.795602
 H        -3.321560         3.392504         0.883739
 H        -3.096820         0.719282         0.472122
