19
Iteration:   646charge 0 multiplicity 1
 O        -3.238090         1.962724         2.796443
 C        -2.142356         1.887952         2.012152
 C        -0.718512         1.383031         2.134946
 C        -0.712096         1.263749         0.624041
 O        -0.255633         0.056195        -0.060009
 C        -0.085536         2.475073        -0.041940
 C        -1.026695         3.749713         0.336524
 C        -2.245892         2.914961         0.905363
 C        -2.318553         1.442397         0.512889
 H        -2.853837         1.426925         3.505887
 H        -0.077820         2.098318         2.765207
 H        -0.543459         0.371429         2.448722
 H        -0.781962        -0.046768        -0.851539
 H         0.957957         2.682752         0.232471
 H        -0.026726         2.369807        -1.117719
 H        -0.591784         4.466411         1.130821
 H        -1.348137         4.449663        -0.417194
 H        -3.218169         3.471806         0.981944
 H        -3.202489         0.883567         0.087459
