19
Iteration:  3446charge 0 multiplicity 1
 O        -3.026707         1.944178         3.095148
 C        -2.137455         1.987952         2.018928
 C        -0.744284         1.341026         1.977564
 C        -0.675656         1.230076         0.495423
 O        -0.108261         0.030866         0.035603
 C        -0.123065         2.552815         0.005873
 C        -1.231977         3.621087         0.223499
 C        -2.388270         2.937718         0.845017
 C        -2.388106         1.434561         0.464147
 H        -3.180112         2.808329         3.389755
 H         0.042224         1.775824         2.622248
 H        -0.878307         0.333692         2.253978
 H        -0.165263        -0.096913        -0.944563
 H         0.730131         2.889345         0.565260
 H         0.275217         2.406708        -0.964154
 H        -0.970319         4.508720         0.824673
 H        -1.515185         4.139797        -0.734796
 H        -3.318839         3.449800         0.949902
 H        -3.167403         0.793765        -0.051136
