19
Iteration:  3607
 O        -3.128743         2.028200         2.920329
 C        -2.080927         1.994149         1.972460
 C        -0.677383         1.214172         2.056821
 C        -0.716756         1.228973         0.506212
 O        -0.175204         0.070187         0.001275
 C        -0.169727         2.604067        -0.037765
 C        -1.255366         3.693929         0.296041
 C        -2.324430         2.870694         0.890340
 C        -2.250452         1.364726         0.591845
 H        -3.181569         2.877199         3.345922
 H         0.203832         1.778930         2.466309
 H        -0.650688         0.227250         2.564238
 H        -0.570441        -0.263177        -0.811038
 H         0.841140         2.807809         0.361561
 H         0.215997         2.353230        -1.062578
 H        -1.028910         4.537292         0.902827
 H        -1.558839         4.125518        -0.662044
 H        -3.238065         3.392130         1.005340
 H        -3.045380         0.818044         0.195053
