19
Iteration:  1798
 O        -3.197898         2.040692         2.980828
 C        -2.167220         1.850244         2.010674
 C        -0.742889         1.256863         2.205837
 C        -0.703245         1.275285         0.562648
 O        -0.165464         0.124823        -0.086130
 C        -0.135469         2.516692        -0.235496
 C        -1.135822         3.709367         0.171690
 C        -2.271327         2.967934         0.952067
 C        -2.256949         1.466945         0.576960
 H        -3.426567         1.095334         3.299673
 H         0.020641         1.986425         2.628821
 H        -0.642578         0.297063         2.641438
 H         0.095672        -0.601830         0.492749
 H         0.880181         2.729730         0.072492
 H        -0.065363         2.046616        -1.234641
 H        -0.607130         4.455688         0.774274
 H        -1.697629         4.274397        -0.540361
 H        -3.318836         3.311602         1.036418
 H        -3.048415         1.128288        -0.061962
