19
Iteration:  2070
 O        -3.106391         1.735523         3.022368
 C        -2.124019         1.977207         1.962245
 C        -0.606737         1.471480         1.988552
 C        -0.760475         1.268415         0.485796
 O        -0.235198        -0.008592         0.181315
 C        -0.210245         2.477583        -0.210626
 C        -1.081986         3.715863         0.335138
 C        -2.381878         3.017379         0.813847
 C        -2.283546         1.511043         0.585908
 H        -3.233612         2.599712         3.374304
 H         0.133920         2.206125         2.443907
 H        -0.595689         0.383712         2.307716
 H        -0.175801        -0.173283        -0.813106
 H         0.863392         2.556777        -0.028805
 H        -0.302008         2.418712        -1.337976
 H        -0.687961         4.227255         1.243345
 H        -1.306553         4.440790        -0.456759
 H        -3.368876         3.473765         0.749883
 H        -3.053903         0.837078         0.100208
