19
Iteration:  1899
 O        -3.179454         1.884519         2.948579
 C        -2.157185         2.020262         2.000888
 C        -0.696686         1.412696         2.038415
 C        -0.738409         1.221785         0.543649
 O        -0.206634        -0.018232         0.057772
 C        -0.147565         2.471202        -0.208310
 C        -1.099980         3.730089         0.298363
 C        -2.270645         3.012088         0.922496
 C        -2.322471         1.489537         0.558572
 H        -3.028740         1.090733         3.471752
 H         0.132921         2.132158         2.453725
 H        -0.798360         0.462960         2.583476
 H         0.236284         0.147697        -0.786889
 H         0.941642         2.726872        -0.014113
 H        -0.281272         2.260671        -1.298953
 H        -0.702329         4.376289         1.117930
 H        -1.406533         4.335440        -0.581711
 H        -3.219596         3.521346         1.041688
 H        -3.084749         0.673325         0.425784
