19
Iteration:  1508
 O        -3.048959         1.946130         2.910531
 C        -2.158216         1.937815         1.902604
 C        -0.761851         1.515945         2.130005
 C        -0.712253         1.315494         0.481793
 O        -0.334119        -0.001959         0.082011
 C        -0.127615         2.532075        -0.203192
 C        -1.055409         3.668997         0.479583
 C        -2.389354         2.864876         0.811101
 C        -2.272642         1.425793         0.499842
 H        -2.934754         1.270656         3.606155
 H        -0.082309         2.198613         2.612166
 H        -0.745934         0.505845         2.740796
 H         0.400020         0.109217        -0.501488
 H         0.982658         2.505278         0.074587
 H        -0.336389         2.420791        -1.267295
 H        -0.492421         3.937680         1.350370
 H        -1.180774         4.550711        -0.166272
 H        -3.315084         3.433247         0.653606
 H        -3.024453         0.711030         0.152923
