19
Iteration:   110
 O        -3.121715         1.799726         2.996675
 C        -2.228142         1.965340         1.998368
 C        -0.756485         1.529710         2.166590
 C        -0.667008         1.309015         0.538380
 O        -0.112119         0.110414         0.004674
 C        -0.040751         2.478402        -0.112783
 C        -1.162882         3.584644         0.148896
 C        -2.347218         2.976789         0.820114
 C        -2.313223         1.408201         0.621780
 H        -3.671075         2.581914         3.130580
 H        -0.029750         2.181361         2.648944
 H        -0.742429         0.506338         2.570050
 H        -0.763001        -0.631364        -0.034347
 H         0.940941         2.826072         0.273529
 H         0.240797         2.264279        -1.198956
 H        -0.716736         4.320812         0.799676
 H        -1.406346         4.121616        -0.739454
 H        -3.359026         3.379451         0.534012
 H        -3.134612         0.738758         0.183099
