19
Iteration:  3252
 O        -2.952989         1.946334         3.101226
 C        -2.120141         1.986816         2.025290
 C        -0.782011         1.229196         2.100740
 C        -0.716109         1.272985         0.573801
 O        -0.183300         0.001500         0.035388
 C        -0.156973         2.574141        -0.098314
 C        -1.213379         3.648360         0.149395
 C        -2.373775         2.946445         0.830617
 C        -2.277718         1.524157         0.453325
 H        -3.799840         2.316541         3.051849
 H        -0.036542         1.747494         2.780731
 H        -1.023537         0.285790         2.503896
 H         0.363730         0.195920        -0.770848
 H         0.848427         2.937659         0.237212
 H        -0.005677         2.316944        -1.204568
 H        -1.048869         4.404821         0.891038
 H        -1.609903         4.166480        -0.707500
 H        -3.330113         3.417265         0.784697
 H        -3.064952         0.736102         0.199117
