19
Iteration:   252charge 0 multiplicity 1
 O        -3.102692         1.667288         2.959746
 C        -2.257372         1.904239         1.902375
 C        -0.724410         1.494504         2.060455
 C        -0.749415         1.251465         0.496891
 O        -0.152254        -0.032082         0.274051
 C        -0.130603         2.561813        -0.078711
 C        -1.019983         3.766673         0.302691
 C        -2.260130         3.071384         0.741417
 C        -2.401251         1.493237         0.432640
 H        -2.965411         2.513192         3.404177
 H         0.124525         2.035562         2.549178
 H        -0.896259         0.542082         2.408193
 H        -0.834854        -0.585609        -0.197149
 H         0.903328         2.729374         0.312426
 H         0.001545         2.557641        -1.206304
 H        -0.575625         4.430903         1.022456
 H        -1.273761         4.263622        -0.578172
 H        -3.182803         3.689111         0.592519
 H        -3.279658         1.007363         0.025982
