19
Iteration:  3886
 O        -3.149453         1.627298         2.977141
 C        -2.246622         1.905238         1.922205
 C        -0.784277         1.605228         2.131243
 C        -0.697624         1.347965         0.597256
 O        -0.250252         0.033111         0.079025
 C        -0.196220         2.496746        -0.325125
 C        -0.958866         3.687052         0.385577
 C        -2.233815         2.959053         0.862033
 C        -2.272256         1.525752         0.412701
 H        -2.889276         2.260976         3.750602
 H        -0.136783         2.484250         2.540062
 H        -0.411636         0.791077         2.773861
 H        -0.510994        -0.593125         0.807426
 H         0.908341         2.385111        -0.420793
 H        -0.659744         2.467043        -1.310706
 H        -0.437614         4.146319         1.212532
 H        -1.163057         4.424009        -0.366557
 H        -3.114865         3.633865         0.782117
 H        -3.094481         0.977675        -0.142493
