19
Iteration:  2799
 O        -3.131256         1.799958         3.021627
 C        -2.109271         1.788000         1.941747
 C        -0.727520         1.462340         2.134597
 C        -0.705303         1.299388         0.419615
 O        -0.351974         0.052580         0.079555
 C        -0.195259         2.596724        -0.308972
 C        -1.042931         3.753464         0.269780
 C        -2.249823         2.924123         0.933522
 C        -2.284366         1.552519         0.522757
 H        -2.620391         1.475118         3.792336
 H         0.013519         2.128264         2.684975
 H        -0.553002         0.344131         2.449847
 H        -0.122275        -0.378101         0.937849
 H         0.892796         2.641641        -0.359661
 H        -0.516929         2.445192        -1.357661
 H        -0.507331         4.160018         1.115973
 H        -1.513338         4.357288        -0.550241
 H        -3.180243         3.596089         1.210258
 H        -2.973237         0.950892        -0.144153
