19
Iteration:  2390
 O        -3.169617         1.838291         3.015499
 C        -2.122390         2.036461         2.044412
 C        -0.577648         1.586655         2.092528
 C        -0.755525         1.228635         0.514179
 O        -0.248741         0.022827        -0.036607
 C        -0.308934         2.401092        -0.357890
 C        -0.981433         3.613548         0.289193
 C        -2.339564         3.041899         0.952579
 C        -2.276985         1.425822         0.691685
 H        -3.584788         1.010976         2.834000
 H         0.136098         2.211856         2.636524
 H        -0.657677         0.682149         2.626971
 H         0.432819         0.408104        -0.600532
 H         0.744506         2.700329        -0.276669
 H        -0.727993         2.258042        -1.383558
 H        -0.390487         3.970158         1.222783
 H        -1.195770         4.474729        -0.388977
 H        -3.248180         3.596163         0.970993
 H        -3.046655         0.777617         0.341774
