19
Iteration:   770
 O        -3.210767         1.808494         2.907793
 C        -2.209901         1.946607         1.912038
 C        -0.736914         1.383218         2.127812
 C        -0.695846         1.279781         0.591957
 O        -0.277774         0.081503         0.021547
 C        -0.184127         2.485142        -0.270899
 C        -0.999027         3.647944         0.448050
 C        -2.241428         2.994516         0.869189
 C        -2.262353         1.480049         0.526981
 H        -3.579542         2.628046         3.245133
 H         0.000620         2.040015         2.552966
 H        -0.696213         0.379950         2.662231
 H         0.632639        -0.164430         0.212788
 H         0.895665         2.700526        -0.221651
 H        -0.577114         2.309600        -1.240210
 H        -0.328281         4.183220         1.123866
 H        -0.943666         4.433096        -0.341070
 H        -3.170069         3.548659         1.031188
 H        -3.049977         0.965508         0.001500
