19
Iteration:  1764
 O        -2.979009         2.057378         3.057889
 C        -2.202837         1.969814         1.914512
 C        -0.814528         1.221921         2.066038
 C        -0.747612         1.254883         0.524318
 O        -0.148969         0.065356        -0.017867
 C        -0.011604         2.546416        -0.055832
 C        -1.189250         3.684563         0.265389
 C        -2.485551         2.931209         0.806332
 C        -2.333117         1.475543         0.473679
 H        -3.071865         1.153003         3.504445
 H         0.040140         1.737284         2.613104
 H        -0.870850         0.199324         2.375725
 H         0.451371        -0.109402         0.697087
 H         0.861539         2.840084         0.511847
 H         0.265616         2.264937        -1.105385
 H        -0.709257         4.374531         0.952811
 H        -1.361517         4.172469        -0.689318
 H        -3.525707         3.350706         0.875909
 H        -3.198095         0.930667         0.044274
