19
Iteration:  4158charge 0 multiplicity 1
 O        -3.095104         1.840257         3.052132
 C        -2.113104         2.036178         1.952555
 C        -0.731205         1.310919         2.034540
 C        -0.765249         1.169244         0.499965
 O        -0.138819         0.064288        -0.004780
 C        -0.131272         2.553327        -0.016453
 C        -1.099784         3.679721         0.324819
 C        -2.412958         2.984852         0.774463
 C        -2.317250         1.458537         0.553003
 H        -3.612680         2.613087         2.958116
 H         0.176882         1.654628         2.624014
 H        -1.145332         0.520997         2.581747
 H         0.039103         0.179804        -0.972182
 H         0.849726         2.770313         0.417040
 H         0.101400         2.435340        -1.114802
 H        -0.739708         4.426567         1.081020
 H        -1.253498         4.295227        -0.587098
 H        -3.391019         3.521231         0.863848
 H        -3.007975         0.667740         0.281741
