19
Iteration:   548charge 0 multiplicity 1
 O        -3.221742         1.766190         2.975690
 C        -2.175035         2.015911         2.021535
 C        -0.779774         1.371745         2.115388
 C        -0.748390         1.332088         0.562749
 O        -0.170229        -0.067494         0.048874
 C        -0.121552         2.540782        -0.130044
 C        -0.961659         3.688763         0.263773
 C        -2.248856         3.076042         0.823467
 C        -2.299929         1.514946         0.580179
 H        -4.128543         1.750822         2.593260
 H         0.034924         2.086500         2.476338
 H        -0.644919         0.399379         2.503496
 H        -0.268726        -0.011155        -0.903835
 H         0.878894         2.612627         0.292116
 H        -0.051685         2.418293        -1.172887
 H        -0.459261         4.282194         1.072753
 H        -1.351082         4.264574        -0.535955
 H        -3.260636         3.487256         0.725953
 H        -3.031072         0.921158         0.083655
