19
Iteration:  2311charge 0 multiplicity 1
 O        -2.949936         2.049463         3.110593
 C        -2.142101         1.982692         1.980758
 C        -0.674962         1.312003         1.995635
 C        -0.727998         1.272944         0.496971
 O        -0.323202        -0.007573        -0.101116
 C        -0.151180         2.606138        -0.018502
 C        -1.217331         3.696622         0.213170
 C        -2.389590         2.898675         0.852922
 C        -2.285202         1.406453         0.520969
 H        -2.787979         1.233411         3.626202
 H         0.238412         1.724761         2.433745
 H        -0.869605         0.314493         2.349294
 H         0.366907        -0.418739         0.425765
 H         0.689160         2.857726         0.649611
 H         0.280718         2.518233        -1.046677
 H        -0.992739         4.568862         0.860636
 H        -1.665192         4.161212        -0.667024
 H        -3.334686         3.474680         0.902700
 H        -3.076599         0.675757         0.165218
