19
Iteration:   549
 O        -3.218092         1.764984         2.976618
 C        -2.171162         2.024768         2.023198
 C        -0.790164         1.365493         2.118547
 C        -0.759830         1.327530         0.542495
 O        -0.162890        -0.069661         0.060692
 C        -0.127957         2.550778        -0.135455
 C        -0.958302         3.686518         0.267088
 C        -2.248400         3.079359         0.830830
 C        -2.297946         1.516784         0.573290
 H        -4.103180         1.726636         2.614004
 H        -0.012419         2.075730         2.484288
 H        -0.640170         0.369636         2.532052
 H        -0.249678        -0.029390        -0.906954
 H         0.907450         2.582389         0.283422
 H        -0.041688         2.431345        -1.195871
 H        -0.452284         4.307396         1.069391
 H        -1.351557         4.271410        -0.547055
 H        -3.263366         3.496011         0.732700
 H        -3.028423         0.903511         0.069796
