19
Iteration:   557charge 0 multiplicity 1
 O        -3.157138         1.770961         2.997153
 C        -2.200555         2.029632         1.994959
 C        -0.839922         1.342483         2.118809
 C        -0.809625         1.230717         0.417314
 O        -0.136108        -0.034754         0.150886
 C        -0.107929         2.553083        -0.181898
 C        -0.981393         3.723394         0.307129
 C        -2.259260         3.048369         0.904179
 C        -2.286051         1.558083         0.513207
 H        -4.004947         1.583137         2.543508
 H        -0.090703         2.012756         2.702971
 H        -0.848364         0.405672         2.592902
 H        -0.100222        -0.175011        -0.801710
 H         0.900201         2.510051         0.110242
 H        -0.063922         2.511757        -1.259923
 H        -0.479302         4.459215         0.932389
 H        -1.194861         4.336048        -0.552833
 H        -3.161746         3.658083         0.827037
 H        -3.023405         0.964111         0.026809
