19
Iteration:   726charge 0 multiplicity 1
 O        -3.156256         1.921432         3.008800
 C        -2.210622         1.935603         1.942566
 C        -0.778717         1.417888         2.042974
 C        -0.689177         1.243530         0.557962
 O        -0.279622         0.018382        -0.005066
 C        -0.088608         2.532854        -0.102479
 C        -0.972048         3.616490         0.366383
 C        -2.334049         2.921873         0.870307
 C        -2.271242         1.487036         0.530720
 H        -3.968059         1.860366         2.500110
 H        -0.060826         2.138026         2.380409
 H        -0.767666         0.529493         2.725272
 H         0.367371         0.233894        -0.682255
 H         0.978587         2.693743         0.122531
 H        -0.310707         2.401373        -1.122874
 H        -0.601942         4.075877         1.319572
 H        -1.174978         4.537075        -0.243522
 H        -3.114773         3.627360         0.945947
 H        -2.821728         0.874780        -0.138704
