19
Iteration:  3369
 O        -3.059215         1.778774         3.068911
 C        -2.183424         1.978056         1.976079
 C        -0.737456         1.533558         1.983016
 C        -0.779034         1.243006         0.545948
 O        -0.122542         0.045539         0.107387
 C        -0.212756         2.499349        -0.232858
 C        -1.033316         3.647586         0.331951
 C        -2.280762         2.975008         0.854268
 C        -2.383006         1.446420         0.563994
 H        -3.921604         2.258150         2.877480
 H         0.132690         2.149202         2.309384
 H        -0.623163         0.653005         2.578534
 H         0.297741         0.099118        -0.752125
 H         0.822632         2.298502        -0.081213
 H        -0.489591         2.359712        -1.248827
 H        -0.558506         4.284473         1.132235
 H        -1.426595         4.203888        -0.577989
 H        -3.255952         3.418606         1.036719
 H        -3.324871         1.082292         0.009941
