19
Iteration:  2461charge 0 multiplicity 1
 O        -2.950072         1.845146         3.102408
 C        -2.165801         2.062088         1.954533
 C        -0.721544         1.570485         2.062627
 C        -0.806769         1.232740         0.549292
 O        -0.234298        -0.004644        -0.009164
 C        -0.180669         2.515560        -0.074061
 C        -1.087801         3.627597         0.289195
 C        -2.399651         2.968408         0.779575
 C        -2.325727         1.443850         0.484795
 H        -2.447212         1.101974         3.415682
 H         0.191764         2.124618         2.353644
 H        -0.680120         0.554387         2.661219
 H        -0.864661        -0.351457        -0.649479
 H         0.799954         2.547215         0.465528
 H        -0.092009         2.500350        -1.159591
 H        -0.579570         4.263946         0.999357
 H        -1.216815         4.273992        -0.586729
 H        -3.317402         3.550658         0.781911
 H        -3.167768         0.819564         0.040217
