19
Iteration:  2822
 O        -3.084191         1.798983         3.064619
 C        -2.247050         2.009893         1.999938
 C        -0.704552         1.485462         1.988666
 C        -0.814218         1.246208         0.497195
 O        -0.230385         0.043098        -0.055526
 C        -0.159110         2.467426        -0.181302
 C        -1.039865         3.658102         0.291697
 C        -2.315073         3.013086         0.918564
 C        -2.291526         1.566791         0.601912
 H        -3.040613         0.896822         3.422395
 H         0.129862         2.135434         2.347979
 H        -0.574345         0.424896         2.445244
 H         0.572090        -0.141039         0.430096
 H         0.897163         2.530479         0.049858
 H        -0.235336         2.194794        -1.236360
 H        -0.491057         4.338227         0.940356
 H        -1.605063         4.051038        -0.587234
 H        -3.285189         3.582373         0.951426
 H        -3.063562         1.034504         0.051122
