19
Iteration:  3972charge 0 multiplicity 1
 O        -3.098871         1.933369         3.139765
 C        -2.284686         1.891707         1.991708
 C        -0.764108         1.332752         2.084864
 C        -0.760199         1.276613         0.563164
 O        -0.228676         0.097012        -0.084754
 C        -0.017333         2.581825        -0.017684
 C        -1.095191         3.600701         0.260437
 C        -2.353520         2.867307         0.798618
 C        -2.288342         1.418125         0.460894
 H        -3.157630         2.873714         3.256041
 H         0.062333         1.959515         2.388283
 H        -0.723426         0.403617         2.504551
 H         0.621323         0.336163        -0.470476
 H         0.836889         2.651968         0.622588
 H         0.252010         2.607872        -1.055372
 H        -0.930526         4.511573         0.852116
 H        -1.310271         4.083775        -0.746999
 H        -3.320856         3.473232         0.742482
 H        -2.915505         0.852273        -0.309065
