19
Iteration:    14charge 0 multiplicity 1
 O        -3.020158         1.762509         3.038268
 C        -2.237183         2.016655         1.887581
 C        -0.828757         1.642973         2.094777
 C        -0.756065         1.266714         0.566454
 O        -0.005813         0.064914         0.108728
 C        -0.143994         2.452703        -0.172177
 C        -1.117674         3.602570         0.272486
 C        -2.369332         2.941108         0.793276
 C        -2.333091         1.405393         0.422408
 H        -3.667092         2.570875         3.105154
 H        -0.222506         2.542623         2.692499
 H        -0.864961         0.712956         2.730908
 H        -0.093934        -0.638004         0.809626
 H         0.876984         2.502204         0.041747
 H        -0.173224         2.210144        -1.164121
 H        -0.651806         4.141040         1.127061
 H        -1.400918         4.415693        -0.396116
 H        -3.327061         3.507065         0.601975
 H        -3.194252         0.731831         0.078396
