19
Iteration:  1091
 O        -3.164582         1.804498         2.904241
 C        -2.104496         1.958144         2.034672
 C        -0.609759         1.450418         2.176495
 C        -0.742519         1.263573         0.442090
 O        -0.211767         0.064329         0.065888
 C        -0.174061         2.468893        -0.250750
 C        -1.083168         3.683722         0.337037
 C        -2.311725         2.952293         0.965570
 C        -2.317778         1.486352         0.540163
 H        -3.586675         2.630434         2.900509
 H         0.003432         2.125997         2.813070
 H        -0.671329         0.356429         2.604491
 H        -1.021969        -0.453171        -0.237189
 H         0.868588         2.683292         0.140605
 H        -0.067948         2.419800        -1.354369
 H        -0.402535         4.380871         0.864061
 H        -1.302431         4.284572        -0.612610
 H        -3.325332         3.394341         1.017379
 H        -2.924845         0.987875        -0.235069
