19
Iteration:  3227
 O        -2.919006         1.981655         3.018945
 C        -2.109745         1.936785         1.940663
 C        -0.776564         1.284043         1.972883
 C        -0.788084         1.228798         0.471751
 O        -0.127688         0.045626         0.099996
 C        -0.233258         2.524756        -0.050264
 C        -1.186680         3.753587         0.235804
 C        -2.344392         2.948947         0.844719
 C        -2.373048         1.354757         0.583849
 H        -3.467808         2.784202         3.106204
 H         0.035884         1.787977         2.491546
 H        -1.037770         0.355622         2.466511
 H         0.692667         0.106760        -0.405780
 H         0.738716         2.676814         0.430763
 H         0.029148         2.272746        -1.078561
 H        -0.910652         4.441416         1.034172
 H        -1.589648         4.351652        -0.591145
 H        -3.397279         3.312731         0.955641
 H        -3.177134         0.966515         0.059211
