19
Iteration:   379charge 0 multiplicity 1
 O        -3.115107         1.778899         2.940340
 C        -2.271945         1.916388         1.902157
 C        -0.734475         1.503837         2.026305
 C        -0.775226         1.313594         0.592310
 O        -0.360460         0.003870         0.119862
 C        -0.035717         2.520169        -0.118303
 C        -1.025538         3.651389         0.341588
 C        -2.312821         3.019465         0.853144
 C        -2.229894         1.569048         0.431340
 H        -2.925219         0.923664         3.450453
 H        -0.001225         2.189870         2.555075
 H        -0.686007         0.472568         2.627383
 H         0.301110        -0.371725         0.695165
 H         0.987551         2.588363         0.206955
 H        -0.179706         2.443034        -1.192748
 H        -0.549819         4.395095         1.065274
 H        -1.252884         4.373354        -0.552483
 H        -3.312704         3.355027         0.547773
 H        -2.735435         1.060617        -0.349102
