19
Iteration:  2289charge 0 multiplicity 1
 O        -2.961721         1.940885         3.060813
 C        -2.075786         2.042961         2.020339
 C        -0.697159         1.387900         2.217813
 C        -0.810844         1.240731         0.531410
 O        -0.264420         0.124720        -0.220965
 C        -0.146678         2.492717        -0.067070
 C        -1.142080         3.612234         0.130358
 C        -2.391959         2.950417         0.836940
 C        -2.347529         1.440804         0.663722
 H        -3.286167         1.022661         3.116307
 H         0.190282         1.887252         2.560963
 H        -0.932154         0.471537         2.718748
 H         0.627717        -0.141393         0.111580
 H         0.874544         2.516406         0.314134
 H        -0.095820         2.178603        -1.124509
 H        -0.867201         4.460379         0.795392
 H        -1.490732         4.134510        -0.762858
 H        -3.414859         3.427615         0.916848
 H        -3.221134         0.868877         0.270846
