19
Iteration:  3570charge 0 multiplicity 1
 O        -3.096282         1.755047         3.101176
 C        -2.218390         1.978539         2.009830
 C        -0.776159         1.399254         2.088600
 C        -0.705981         1.296765         0.536304
 O        -0.183381         0.095167         0.097274
 C        -0.145692         2.476942        -0.231535
 C        -1.051309         3.685960         0.229272
 C        -2.277920         2.961975         0.831217
 C        -2.300655         1.444013         0.503944
 H        -3.233023         2.539460         3.571070
 H        -0.194729         2.227889         2.494618
 H        -0.847672         0.482212         2.761019
 H        -0.339487         0.065789        -0.883961
 H         0.914045         2.623830         0.038453
 H        -0.400641         2.420195        -1.225461
 H        -0.488167         4.414342         0.897306
 H        -1.481635         4.218065        -0.641320
 H        -3.290475         3.471877         0.774009
 H        -3.023926         0.879927        -0.200634
