19
Iteration:   945charge 0 multiplicity 1
 O        -3.143663         1.723942         2.936835
 C        -2.184015         1.996375         1.913564
 C        -0.730563         1.586093         2.034971
 C        -0.757230         1.299865         0.485134
 O        -0.379196        -0.088963         0.118729
 C        -0.079509         2.493560        -0.154126
 C        -1.025325         3.742909         0.356430
 C        -2.268252         3.019596         0.863312
 C        -2.304717         1.473866         0.551477
 H        -2.597146         1.548116         3.779505
 H         0.059276         2.234035         2.390169
 H        -0.699591         0.532535         2.503279
 H         0.562517         0.035941         0.002542
 H         1.014483         2.525272         0.061536
 H        -0.094964         2.348465        -1.253149
 H        -0.649757         4.347994         1.198550
 H        -1.384965         4.345542        -0.485019
 H        -3.219056         3.565303         0.692460
 H        -3.023498         0.882037        -0.027276
