19
Iteration:   900charge 0 multiplicity 1
 O        -3.070044         1.997193         2.981635
 C        -2.219081         1.901701         1.949181
 C        -0.821848         1.369828         2.098757
 C        -0.734810         1.267854         0.487299
 O        -0.145480         0.075600         0.096691
 C        -0.200454         2.494906        -0.172810
 C        -0.996343         3.695634         0.396769
 C        -2.298405         2.912109         0.826744
 C        -2.297955         1.447420         0.543885
 H        -3.759926         1.264040         3.040043
 H        -0.230846         2.122465         2.669376
 H        -0.714226         0.305098         2.464188
 H        -0.229991         0.020896        -0.863217
 H         0.918426         2.560321        -0.166824
 H        -0.336935         2.505583        -1.287207
 H        -0.413332         4.164411         1.243739
 H        -1.217975         4.372242        -0.450985
 H        -3.237622         3.484003         0.877424
 H        -3.075707         0.846462         0.032615
