19
Iteration:   629charge 0 multiplicity 1
 O        -3.296155         1.953874         2.879215
 C        -2.128488         1.984667         1.953738
 C        -0.666099         1.435911         2.159162
 C        -0.738993         1.212837         0.466714
 O        -0.221733         0.025431        -0.064907
 C        -0.100996         2.501194        -0.075443
 C        -1.020930         3.574131         0.461385
 C        -2.337812         3.008179         0.822018
 C        -2.235474         1.476454         0.571837
 H        -3.313166         1.413299         3.659523
 H         0.161017         2.046404         2.385092
 H        -0.723646         0.502111         2.848021
 H        -0.570656        -0.008317        -0.975797
 H         0.980674         2.686287         0.256996
 H        -0.108370         2.507207        -1.212570
 H        -0.643211         4.146763         1.305995
 H        -1.078607         4.446004        -0.261569
 H        -3.326399         3.416320         0.856382
 H        -2.928929         0.735067         0.152176
