19
Iteration:   306charge 0 multiplicity 1
 O        -3.177051         1.999230         2.941822
 C        -2.211394         1.870286         2.032202
 C        -0.792823         1.351861         2.220558
 C        -0.732954         1.244043         0.534423
 O        -0.137871         0.089659        -0.132610
 C        -0.065272         2.535182        -0.106248
 C        -1.074003         3.719358         0.278429
 C        -2.294888         2.895815         0.812153
 C        -2.247073         1.397878         0.609951
 H        -4.031241         2.212707         2.505319
 H        -0.050100         2.075806         2.584627
 H        -0.687514         0.483344         2.736523
 H        -0.532252        -0.680191         0.350631
 H         0.932473         2.853577         0.160529
 H        -0.140016         2.351829        -1.196315
 H        -0.631215         4.170838         1.170987
 H        -1.205652         4.601363        -0.274007
 H        -3.257545         3.446711         0.754584
 H        -2.910516         0.768100         0.039423
