19
Iteration:  4237
 O        -3.043560         1.712929         2.945050
 C        -2.180511         2.017832         1.979930
 C        -0.694112         1.490044         2.137402
 C        -0.769413         1.233633         0.555532
 O        -0.278404        -0.029468        -0.052614
 C        -0.153879         2.591428        -0.161180
 C        -1.037295         3.726262         0.376882
 C        -2.399079         2.983333         0.824682
 C        -2.267839         1.493942         0.511716
 H        -3.711915         2.344431         3.057470
 H         0.037573         2.153074         2.634711
 H        -0.658145         0.510761         2.672503
 H         0.592265        -0.336370         0.269217
 H         0.976078         2.566123        -0.020142
 H        -0.380303         2.294833        -1.161088
 H        -0.501321         4.261345         1.256281
 H        -1.318805         4.501963        -0.347067
 H        -3.343209         3.436511         0.623256
 H        -3.096385         0.766123         0.391037
