19
Iteration:  4629charge 0 multiplicity 1
 O        -3.214632         1.829765         2.911802
 C        -2.150064         1.939074         1.949750
 C        -0.670259         1.488837         2.025185
 C        -0.747385         1.236634         0.506612
 O        -0.224709         0.030610         0.132322
 C        -0.211885         2.499331        -0.296329
 C        -1.026604         3.726892         0.386221
 C        -2.247625         3.055332         0.959094
 C        -2.323703         1.463774         0.578766
 H        -3.497880         0.944658         3.020705
 H         0.199814         1.997613         2.482726
 H        -0.430163         0.501097         2.462302
 H         0.593525         0.205256        -0.374653
 H         0.824401         2.562419        -0.250647
 H        -0.552257         2.355852        -1.311561
 H        -0.375069         4.082517         1.175156
 H        -1.375276         4.408818        -0.386686
 H        -3.254978         3.361137         1.069088
 H        -3.157877         0.779788         0.460227
