19
Iteration:  1032charge 0 multiplicity 1
 O        -2.920794         1.971708         3.088780
 C        -2.234620         2.008585         1.950355
 C        -0.877667         1.302954         2.012012
 C        -0.781825         1.278832         0.484025
 O        -0.123250         0.134360        -0.026380
 C        -0.175482         2.468427        -0.047503
 C        -1.032227         3.638912         0.371123
 C        -2.326123         2.918995         0.851910
 C        -2.367923         1.415457         0.398457
 H        -3.898836         2.159183         3.030506
 H        -0.186208         2.013722         2.391732
 H        -0.812433         0.410648         2.651174
 H         0.031867        -0.462187         0.703913
 H         0.822974         2.699770         0.345007
 H        -0.220298         2.323871        -1.157276
 H        -0.464992         4.202921         1.122855
 H        -1.225818         4.242218        -0.494343
 H        -3.257908         3.418547         0.615499
 H        -3.103812         0.791321        -0.092921
