19
Iteration:   788
 O        -3.161394         1.746789         2.915289
 C        -2.201158         1.928459         1.988754
 C        -0.736161         1.454803         2.020639
 C        -0.799506         1.246000         0.469315
 O        -0.232251         0.027741         0.068957
 C        -0.145842         2.475942        -0.110705
 C        -0.955357         3.661424         0.349237
 C        -2.308473         3.045391         0.841011
 C        -2.326419         1.582546         0.486590
 H        -2.950497         2.237125         3.735742
 H         0.069526         2.028347         2.608253
 H        -0.828828         0.490537         2.531639
 H         0.417235        -0.230056         0.736323
 H         0.965129         2.530106         0.094958
 H        -0.242776         2.457900        -1.269916
 H        -0.550340         4.259262         1.229958
 H        -1.137212         4.499412        -0.346349
 H        -3.289626         3.502028         0.735070
 H        -3.067052         0.969530         0.009524
