19
Iteration:  4363charge 0 multiplicity 1
 O        -3.087610         2.099688         2.997769
 C        -2.190398         1.863780         2.016915
 C        -0.722239         1.373060         2.041971
 C        -0.757602         1.273491         0.520936
 O        -0.204721         0.050934        -0.095880
 C        -0.155805         2.557863        -0.036534
 C        -1.126880         3.636299         0.423323
 C        -2.283934         2.832882         0.834274
 C        -2.314558         1.418511         0.486528
 H        -3.626324         1.314207         3.210168
 H        -0.048218         2.130998         2.440505
 H        -0.621538         0.451009         2.564882
 H         0.773208         0.192512        -0.251869
 H         0.869306         2.707213         0.298416
 H        -0.205169         2.563340        -1.203484
 H        -0.793845         4.374278         1.124642
 H        -1.499078         4.103150        -0.557543
 H        -3.174090         3.371120         1.029575
 H        -2.961460         0.793873        -0.173302
