19
Iteration:  4786
 O        -3.125914         1.821310         2.977009
 C        -2.177737         1.927038         1.922341
 C        -0.706944         1.492224         1.951076
 C        -0.792272         1.287290         0.465371
 O        -0.230114        -0.059952         0.191272
 C        -0.109657         2.574268        -0.155239
 C        -1.026264         3.733295         0.390383
 C        -2.393551         3.016579         0.921018
 C        -2.301869         1.462979         0.483452
 H        -3.102969         0.868294         3.283043
 H         0.028789         2.322032         2.257766
 H        -0.456177         0.434360         2.492331
 H         0.146041        -0.070278        -0.731864
 H         0.949466         2.497610        -0.016204
 H        -0.390106         2.555496        -1.262092
 H        -0.580629         4.211060         1.361142
 H        -1.214688         4.408190        -0.443922
 H        -3.235910         3.715598         1.064124
 H        -2.933798         0.829952        -0.068687
