19
Iteration:  4809
 O        -3.089720         1.837841         3.012325
 C        -2.213535         1.899957         1.912324
 C        -0.809381         1.422505         2.101411
 C        -0.753742         1.305354         0.520531
 O        -0.204486         0.072432         0.212823
 C        -0.205593         2.617954        -0.339019
 C        -1.002474         3.624344         0.432378
 C        -2.295202         2.928623         0.854220
 C        -2.238040         1.512009         0.417928
 H        -2.890677         1.009975         3.527082
 H        -0.173617         2.234347         2.616974
 H        -0.630515         0.311366         2.501901
 H        -0.368064        -0.101232        -0.726537
 H         0.856916         2.798525        -0.253325
 H        -0.479248         2.370082        -1.394580
 H        -0.393040         3.817010         1.399680
 H        -1.233198         4.516972        -0.137351
 H        -3.243926         3.429559         0.583942
 H        -3.100664         1.201715        -0.147849
