19
Iteration:  2976charge 0 multiplicity 1
 O        -3.053458         1.834523         2.937706
 C        -2.057537         1.834560         1.954242
 C        -0.553189         1.573682         1.974913
 C        -0.735551         1.309031         0.485615
 O        -0.348304        -0.042434         0.267262
 C        -0.197336         2.587542        -0.247211
 C        -1.174004         3.697798         0.366697
 C        -2.387241         2.921763         0.914605
 C        -2.255419         1.442850         0.542273
 H        -3.854440         1.578862         2.553409
 H         0.149531         2.298821         2.418697
 H        -0.231509         0.586427         2.426380
 H        -0.386264        -0.129972        -0.725381
 H         0.800600         2.823134         0.128121
 H        -0.191490         2.556616        -1.352626
 H        -0.675565         4.267513         1.157389
 H        -1.134668         4.479788        -0.393286
 H        -3.322635         3.382816         1.144098
 H        -2.981367         0.947281        -0.155224
