19
Iteration:  2195charge 0 multiplicity 1
 O        -3.018003         1.809394         3.105555
 C        -2.290738         1.941973         1.959621
 C        -0.837424         1.535982         2.056319
 C        -0.731835         1.295983         0.465568
 O        -0.203801         0.048820         0.037084
 C        -0.174300         2.517233        -0.267850
 C        -1.029361         3.625543         0.301306
 C        -2.280169         2.961746         0.875499
 C        -2.309249         1.473478         0.553429
 H        -2.503676         1.328289         3.745885
 H        -0.131324         2.375135         2.461940
 H        -0.692591         0.591987         2.635181
 H        -0.973382        -0.546804        -0.137400
 H         0.922470         2.715530        -0.096768
 H        -0.278691         2.406897        -1.362181
 H        -0.321578         4.067925         1.034822
 H        -0.981214         4.510504        -0.382510
 H        -3.116980         3.647546         0.750181
 H        -3.118356         0.826824         0.104736
