19
Iteration:  4078
 O        -3.137187         1.578863         2.815814
 C        -2.134823         2.080429         1.967581
 C        -0.682329         1.543894         2.025587
 C        -0.866368         1.269187         0.538637
 O        -0.190427         0.070490         0.222658
 C        -0.239708         2.423265        -0.186278
 C        -0.976253         3.712788         0.424211
 C        -2.296369         3.072237         0.827212
 C        -2.323575         1.499922         0.523862
 H        -2.903410         1.982080         3.636684
 H         0.109829         2.315482         2.361159
 H        -0.560715         0.534645         2.472147
 H        -0.419605        -0.284171        -0.661439
 H         0.812164         2.534695        -0.071771
 H        -0.435291         2.436786        -1.326999
 H        -0.387619         4.068813         1.267749
 H        -1.063114         4.384684        -0.420589
 H        -3.257245         3.624746         0.804015
 H        -3.003360         0.664924         0.238236
