19
Iteration:  4585
 O        -3.098973         1.834148         3.110557
 C        -2.223366         1.890920         1.958340
 C        -0.784338         1.470944         2.120222
 C        -0.635227         1.337397         0.553436
 O        -0.346380         0.018159        -0.032800
 C        -0.151036         2.544717        -0.169855
 C        -1.038765         3.753847         0.277379
 C        -2.308162         2.941383         0.831644
 C        -2.220346         1.456293         0.512001
 H        -3.398005         0.939160         3.083862
 H        -0.189100         2.117410         2.799886
 H        -0.648942         0.509128         2.574062
 H         0.589358        -0.263911         0.029343
 H         0.863938         2.721977         0.010881
 H        -0.315884         2.374712        -1.222720
 H        -0.580269         4.402520         1.022046
 H        -1.390725         4.210168        -0.643075
 H        -3.145777         3.586163         0.591940
 H        -2.909008         0.901135        -0.122048
