19
Iteration:   272charge 0 multiplicity 1
 O        -3.052596         1.756220         2.983093
 C        -2.261212         2.002156         1.978752
 C        -0.852479         1.464714         2.073342
 C        -0.735370         1.293078         0.527196
 O        -0.169961         0.031631         0.118930
 C        -0.018394         2.504391        -0.067534
 C        -1.080760         3.644694         0.285999
 C        -2.353571         2.973529         0.825290
 C        -2.248263         1.524740         0.400464
 H        -3.571255         2.572566         3.270262
 H        -0.172689         2.253712         2.437184
 H        -0.785345         0.628983         2.672099
 H        -0.830718        -0.597093        -0.208672
 H         1.014184         2.590813         0.275710
 H         0.047704         2.220177        -1.136571
 H        -0.579169         4.123857         1.140185
 H        -1.275735         4.273103        -0.572758
 H        -3.386172         3.385241         0.816877
 H        -2.871854         0.929614        -0.244435
