19
Iteration:  4950
 O        -3.176374         1.950519         3.014784
 C        -2.207994         1.851562         1.955879
 C        -0.742818         1.422544         2.104823
 C        -0.746665         1.251924         0.435470
 O        -0.084957         0.047224         0.028537
 C        -0.210321         2.540478        -0.175913
 C        -1.061160         3.684403         0.369467
 C        -2.295519         2.941948         0.909336
 C        -2.285940         1.522191         0.503912
 H        -3.295344         1.219710         3.579411
 H        -0.190822         2.162922         2.615075
 H        -0.594699         0.395383         2.584303
 H        -0.136921        -0.030585        -0.931981
 H         0.824748         2.651128         0.073155
 H        -0.321041         2.177800        -1.253553
 H        -0.407952         4.180709         1.175226
 H        -1.400081         4.352783        -0.406403
 H        -3.274310         3.395479         0.953112
 H        -2.994781         0.834849         0.046403
