19
Iteration:  1958
 O        -2.950450         2.076089         3.107153
 C        -2.183635         1.894435         1.931574
 C        -0.730666         1.354138         2.058899
 C        -0.701306         1.285493         0.483414
 O        -0.308783        -0.009176        -0.016383
 C        -0.125609         2.561752        -0.071329
 C        -1.190241         3.661488         0.287625
 C        -2.424191         2.888403         0.828619
 C        -2.221089         1.473319         0.453182
 H        -3.541524         1.262509         3.339925
 H        -0.029774         1.809788         2.816631
 H        -0.813551         0.239398         2.415116
 H         0.510409        -0.306557         0.391216
 H         0.740888         2.901550         0.556206
 H         0.228670         2.589594        -1.098613
 H        -1.016963         4.489200         1.003620
 H        -1.379859         4.249754        -0.674242
 H        -3.460109         3.258458         0.732603
 H        -2.749065         0.892717        -0.239982
