19
Iteration:   635
 O        -3.296843         1.956890         2.850554
 C        -2.110762         1.941275         1.945305
 C        -0.650920         1.429451         2.187036
 C        -0.715011         1.228608         0.508585
 O        -0.228730         0.030413        -0.078720
 C        -0.081017         2.490777        -0.080092
 C        -1.056726         3.689186         0.428869
 C        -2.323543         2.927940         0.832864
 C        -2.264265         1.500283         0.536895
 H        -3.273947         1.454902         3.725815
 H         0.208695         2.097966         2.573971
 H        -0.723139         0.524406         2.752440
 H        -0.683616         0.053274        -0.924239
 H         0.907226         2.377215         0.342995
 H        -0.058499         2.297979        -1.143850
 H        -0.563924         4.091741         1.360275
 H        -1.149882         4.383204        -0.382985
 H        -3.275991         3.467539         1.050561
 H        -3.132569         0.847403         0.332858
