19
Iteration:   173
 O        -3.174802         2.027411         2.939438
 C        -2.213572         2.009381         1.959592
 C        -0.784222         1.460806         2.075180
 C        -0.728355         1.243249         0.508901
 O        -0.126175         0.028685         0.015169
 C        -0.116711         2.511746        -0.167960
 C        -1.099181         3.550618         0.359355
 C        -2.376537         2.923164         0.846382
 C        -2.282206         1.418999         0.531845
 H        -3.143039         1.155664         3.389820
 H         0.044062         2.014727         2.737147
 H        -0.622388         0.523683         2.603126
 H         0.547595        -0.089709         0.727663
 H         0.944546         2.817599        -0.012000
 H        -0.202360         2.536416        -1.303594
 H        -0.666481         4.137862         1.201304
 H        -1.292911         4.335264        -0.408388
 H        -3.296298         3.500590         0.778463
 H        -2.874438         0.638746         0.006447
