19
Iteration:   319
 O        -3.175574         2.025374         2.923880
 C        -2.130663         1.969329         1.925828
 C        -0.737538         1.361150         2.180636
 C        -0.728455         1.183124         0.612110
 O        -0.129833         0.108841        -0.097745
 C        -0.144131         2.543794        -0.125963
 C        -1.073468         3.634649         0.384007
 C        -2.315582         2.942550         0.903972
 C        -2.318763         1.419510         0.477587
 H        -3.959038         1.956406         2.349964
 H         0.104438         1.831586         2.685273
 H        -1.006591         0.410484         2.596629
 H         0.105789        -0.662970         0.417986
 H         0.922077         2.600738         0.174892
 H        -0.130040         2.366125        -1.223592
 H        -0.661900         4.262543         1.165404
 H        -1.416353         4.171278        -0.445825
 H        -3.249671         3.501824         1.041434
 H        -3.013522         0.653722         0.079060
