19
Iteration:  4974
 O        -3.121480         1.953090         2.985253
 C        -2.191500         1.982744         1.963927
 C        -0.708587         1.465565         2.107857
 C        -0.681709         1.289802         0.540365
 O        -0.178881         0.068408         0.057305
 C        -0.243419         2.575673        -0.248737
 C        -1.008779         3.685338         0.482086
 C        -2.302036         2.825843         0.831292
 C        -2.275606         1.362331         0.510857
 H        -3.622487         1.113120         2.996456
 H        -0.025294         1.996690         2.771169
 H        -0.839744         0.417033         2.401422
 H        -0.493427         0.084263        -0.850371
 H         0.802115         2.800273        -0.424760
 H        -0.762837         2.237996        -1.181785
 H        -0.576464         3.922719         1.512674
 H        -1.217471         4.538690        -0.150605
 H        -3.274422         3.252604         0.718183
 H        -2.815365         0.930436        -0.354498
