19
Iteration:  3682charge 0 multiplicity 1
 O        -3.153744         1.701008         2.917999
 C        -2.139870         1.942034         1.999165
 C        -0.638579         1.492067         2.036389
 C        -0.759613         1.281623         0.495411
 O        -0.208057        -0.044058         0.236056
 C        -0.205238         2.507254        -0.307363
 C        -1.167294         3.698112         0.246056
 C        -2.259827         2.996730         0.925185
 C        -2.304804         1.557403         0.555527
 H        -2.997588         2.491913         3.562663
 H         0.086357         2.163277         2.519069
 H        -0.859100         0.445370         2.544512
 H         0.328871         0.337170        -0.505588
 H         0.896254         2.718628        -0.081150
 H        -0.261521         2.415265        -1.392597
 H        -0.589622         4.201772         1.094745
 H        -1.412953         4.458008        -0.532312
 H        -3.181785         3.509837         0.948790
 H        -3.101294         0.908206         0.337361
