19
Iteration:  3097charge 0 multiplicity 1
 O        -3.088273         1.759350         3.045021
 C        -2.213465         1.954911         1.927873
 C        -0.717256         1.561967         2.164796
 C        -0.700019         1.294085         0.554512
 O        -0.297639         0.088922         0.021048
 C        -0.115717         2.515803        -0.207710
 C        -1.076075         3.598494         0.270854
 C        -2.342967         2.934746         0.806229
 C        -2.227770         1.401773         0.587678
 H        -2.788197         2.386078         3.771003
 H         0.048223         2.286710         2.600875
 H        -0.563539         0.563012         2.585476
 H        -0.670540         0.064172        -0.850542
 H         0.872938         2.674618         0.254329
 H        -0.180065         2.484629        -1.349717
 H        -0.669338         4.272713         1.033042
 H        -1.345298         4.278557        -0.550996
 H        -3.377024         3.285231         0.515582
 H        -3.013423         0.860255         0.049625
