19
Iteration:  2191
 O        -3.038505         1.840074         3.101604
 C        -2.257180         1.896735         1.997492
 C        -0.856694         1.532004         2.057160
 C        -0.722164         1.294229         0.477870
 O        -0.207947         0.072197        -0.002001
 C        -0.161050         2.505868        -0.250039
 C        -1.018045         3.650391         0.274454
 C        -2.270522         2.951960         0.892828
 C        -2.323400         1.472334         0.551934
 H        -2.568167         1.367356         3.837372
 H        -0.254792         2.317610         2.526591
 H        -0.612704         0.561228         2.467118
 H        -0.952529        -0.558094        -0.004737
 H         0.888453         2.691729        -0.085700
 H        -0.214789         2.422811        -1.368898
 H        -0.330695         4.140669         1.019869
 H        -0.959187         4.378416        -0.534482
 H        -3.258086         3.468669         0.743117
 H        -3.066160         0.852286         0.147923
