19
Iteration:  1596
 O        -3.082524         1.945694         2.996445
 C        -2.097196         2.009792         2.006969
 C        -0.690130         1.351655         2.098251
 C        -0.710134         1.269052         0.532384
 O        -0.336182        -0.049516        -0.060008
 C        -0.148165         2.630303        -0.006386
 C        -1.144966         3.716671         0.191241
 C        -2.325367         2.929669         0.816220
 C        -2.241343         1.430170         0.594519
 H        -3.762223         1.286977         2.662234
 H         0.185017         1.775905         2.551055
 H        -1.111996         0.432390         2.677940
 H         0.573686        -0.279007         0.173954
 H         0.823231         2.739651         0.546643
 H         0.166275         2.594282        -1.041234
 H        -0.698383         4.507463         0.795564
 H        -1.497669         4.212743        -0.739218
 H        -3.274733         3.501909         0.775833
 H        -2.997526         0.723160         0.176839
