19
Iteration:  1663
 O        -3.142667         1.759788         2.991382
 C        -2.207258         2.028511         1.970020
 C        -0.737714         1.533152         2.129006
 C        -0.702068         1.212361         0.495819
 O        -0.169869        -0.016956         0.119594
 C        -0.241288         2.474238        -0.350115
 C        -0.944462         3.582945         0.353952
 C        -2.338832         3.086650         0.911752
 C        -2.357097         1.627850         0.533529
 H        -3.792207         1.006458         2.857875
 H         0.083637         2.134521         2.519366
 H        -0.894151         0.511578         2.679876
 H         0.840470        -0.007761         0.144352
 H         0.872698         2.548002        -0.365693
 H        -0.497709         2.402299        -1.430378
 H        -0.526736         4.041901         1.230006
 H        -1.083263         4.400468        -0.340484
 H        -3.303327         3.511278         0.732144
 H        -2.936363         0.897619         0.036959
