19
Iteration:  1953
 O        -2.967827         2.085787         3.099981
 C        -2.210342         1.885940         1.959276
 C        -0.707813         1.308039         2.085599
 C        -0.748088         1.284588         0.483939
 O        -0.311828         0.030152        -0.032959
 C        -0.100908         2.595920        -0.078633
 C        -1.148187         3.667592         0.240993
 C        -2.462242         2.876204         0.863363
 C        -2.183082         1.442432         0.469324
 H        -3.589765         1.422447         3.335592
 H        -0.171694         1.949183         2.810534
 H        -0.851130         0.308727         2.418434
 H         0.596092        -0.230936         0.222836
 H         0.784121         2.819972         0.522770
 H         0.172309         2.574181        -1.155461
 H        -0.781952         4.405691         0.982621
 H        -1.278716         4.157993        -0.714640
 H        -3.518302         3.136235         0.819867
 H        -2.739206         0.759593        -0.241297
