19
Iteration:  3862
 O        -3.132658         1.707238         2.995837
 C        -2.154540         1.975782         1.968785
 C        -0.713620         1.372125         2.059559
 C        -0.733984         1.313462         0.530048
 O        -0.170158         0.039745         0.168995
 C        -0.175325         2.574937        -0.209125
 C        -1.044407         3.697436         0.255983
 C        -2.376792         3.019858         0.808126
 C        -2.270610         1.511707         0.507836
 H        -3.016806         2.489112         3.557096
 H         0.148910         1.766226         2.666014
 H        -0.837020         0.418815         2.425550
 H        -0.954699        -0.511616        -0.048635
 H         0.835583         2.581136         0.089106
 H        -0.213716         2.550097        -1.291607
 H        -0.538211         4.059056         1.126979
 H        -1.072955         4.521248        -0.462988
 H        -3.357066         3.411442         0.654397
 H        -3.093563         1.052999        -0.044040
