19
Iteration:  2986charge 0 multiplicity 1
 O        -2.968100         1.792009         2.946384
 C        -2.124015         1.912429         1.905878
 C        -0.561404         1.550477         2.015926
 C        -0.730397         1.338656         0.478089
 O        -0.293006        -0.017067         0.230702
 C        -0.193222         2.547909        -0.180756
 C        -1.100731         3.689516         0.350552
 C        -2.383349         2.951319         0.876161
 C        -2.402323         1.462176         0.541402
 H        -3.832331         1.760738         2.521125
 H         0.165447         2.302511         2.387835
 H        -0.516826         0.523489         2.518980
 H        -0.181661        -0.210064        -0.754341
 H         0.839339         2.718124         0.164427
 H        -0.217611         2.520624        -1.302093
 H        -0.758028         4.140231         1.250688
 H        -1.545601         4.358794        -0.372576
 H        -3.352873         3.346437         0.976954
 H        -3.049711         0.586639         0.299418
