19
Iteration:  4769
 O        -3.116795         1.827955         2.922213
 C        -2.123236         1.954747         1.994926
 C        -0.684665         1.491777         2.059704
 C        -0.738509         1.214764         0.501558
 O        -0.262159        -0.018903         0.075139
 C        -0.139794         2.529705        -0.115800
 C        -1.113613         3.688781         0.336625
 C        -2.283356         2.978711         0.895634
 C        -2.333434         1.535002         0.543713
 H        -3.291799         0.866369         2.916261
 H         0.115895         2.125629         2.402690
 H        -0.613262         0.694291         2.665822
 H         0.084260         0.135808        -0.839266
 H         0.813628         2.812943         0.415399
 H         0.086487         2.566232        -1.167091
 H        -0.595761         4.316335         0.982026
 H        -1.528618         4.268693        -0.509794
 H        -3.294658         3.367874         0.757424
 H        -3.294793         1.054919         0.189852
