19
Iteration:  2744charge 0 multiplicity 1
 O        -3.056816         1.752838         3.121518
 C        -2.208357         1.974686         1.977279
 C        -0.753329         1.527138         2.078694
 C        -0.758118         1.224328         0.409078
 O        -0.153013         0.124215        -0.072028
 C        -0.155985         2.482476        -0.202083
 C        -0.949550         3.614561         0.296877
 C        -2.311701         2.972183         0.918873
 C        -2.438407         1.470773         0.649397
 H        -3.713882         2.409765         3.193183
 H         0.024180         2.297528         2.308447
 H        -0.421965         0.595802         2.655986
 H        -0.806661        -0.422109        -0.487597
 H         0.899640         2.499708         0.085554
 H        -0.133086         2.273827        -1.270745
 H        -0.408698         4.239099         1.038315
 H        -1.322724         4.385714        -0.458836
 H        -3.216211         3.614294         0.669593
 H        -3.211032         0.753441         0.303378
