19
Iteration:  4226charge 0 multiplicity 1
 O        -3.082438         1.785634         3.036809
 C        -2.173296         1.962335         1.932068
 C        -0.733141         1.501136         2.038206
 C        -0.746426         1.226741         0.521627
 O        -0.251733        -0.037503        -0.054549
 C        -0.215996         2.538503        -0.130463
 C        -1.054254         3.738154         0.376468
 C        -2.311499         2.972626         0.863710
 C        -2.276852         1.424361         0.557483
 H        -3.778276         2.429101         2.873653
 H         0.160781         2.043167         2.322856
 H        -0.838246         0.550732         2.608971
 H         0.648393         0.018748         0.244763
 H         0.814347         2.782918         0.335359
 H        -0.040441         2.676915        -1.161361
 H        -0.535002         4.321652         1.227579
 H        -1.206038         4.451433        -0.448357
 H        -3.288512         3.394490         0.790346
 H        -3.036170         0.860007        -0.058585
