19
Iteration:  2826charge 0 multiplicity 1
 O        -3.087935         1.817492         3.079750
 C        -2.187898         2.016634         2.019160
 C        -0.731657         1.509529         2.007096
 C        -0.782798         1.217099         0.482353
 O        -0.232906         0.039052        -0.086063
 C        -0.163656         2.449460        -0.137661
 C        -1.051412         3.657881         0.291680
 C        -2.336231         3.023074         0.912624
 C        -2.314376         1.535694         0.601527
 H        -3.006072         0.824647         3.122948
 H         0.121252         2.105971         2.283918
 H        -0.727619         0.527898         2.420301
 H         0.637912         0.011648         0.396843
 H         0.926619         2.444859         0.064246
 H        -0.242589         2.314830        -1.237766
 H        -0.557251         4.402998         0.951657
 H        -1.497841         4.067292        -0.615736
 H        -3.215127         3.588398         0.851276
 H        -3.076005         0.977396         0.105475
