19
Iteration:  1261
 O        -3.094752         1.851612         3.008064
 C        -2.191800         1.911882         1.884322
 C        -0.698484         1.449774         2.047667
 C        -0.765415         1.258237         0.529378
 O        -0.343131         0.041397         0.126118
 C        -0.044680         2.561531        -0.034633
 C        -1.038250         3.668953         0.284493
 C        -2.246855         2.946903         0.876984
 C        -2.333763         1.499271         0.412444
 H        -2.672667         1.146933         3.438023
 H        -0.009040         2.300368         2.401872
 H        -0.590575         0.542536         2.481103
 H        -0.995991        -0.598887        -0.097192
 H         0.903732         2.976205         0.200189
 H        -0.053331         2.665264        -1.145750
 H        -0.733800         4.528272         0.919408
 H        -1.330729         4.118124        -0.655997
 H        -3.231466         3.455488         0.880231
 H        -3.029494         0.897193        -0.210170
