19
Iteration:   581charge 0 multiplicity 1
 O        -3.024471         1.859092         3.004909
 C        -2.270638         1.895726         1.861913
 C        -0.842218         1.265955         1.995857
 C        -0.708135         1.353969         0.531423
 O        -0.167016         0.014037         0.293336
 C        -0.166329         2.534594        -0.177136
 C        -0.985176         3.626754         0.373931
 C        -2.282163         3.024371         0.897096
 C        -2.393672         1.628376         0.378258
 H        -3.839834         1.255120         2.948317
 H        -0.184555         1.991226         2.610286
 H        -0.602492         0.259068         2.286731
 H        -0.050509         0.066691        -0.669464
 H         0.914724         2.588296        -0.050244
 H        -0.303949         2.231367        -1.173585
 H        -0.359902         4.207532         1.112479
 H        -1.080001         4.446873        -0.317546
 H        -3.175658         3.698875         0.905727
 H        -3.050934         1.206462        -0.385142
