19
Iteration:   392charge 0 multiplicity 1
 O        -3.226044         1.766474         2.847106
 C        -2.133732         1.967586         1.924668
 C        -0.637371         1.525368         2.143450
 C        -0.709838         1.247315         0.524423
 O        -0.419350         0.003779         0.093590
 C        -0.143521         2.500286        -0.082563
 C        -0.998220         3.754416         0.370254
 C        -2.314948         2.975201         0.816308
 C        -2.253659         1.471393         0.441280
 H        -2.812109         1.234183         3.502014
 H         0.140216         2.326111         2.299769
 H        -0.528461         0.631717         2.802059
 H         0.446030        -0.263102         0.510051
 H         0.849648         2.667324         0.246669
 H        -0.050450         2.298320        -1.153258
 H        -0.489286         4.367435         1.206545
 H        -1.270991         4.447211        -0.500825
 H        -3.241943         3.566142         0.925100
 H        -3.016866         0.976708        -0.189584
