19
Iteration:  2046
 O        -3.194822         1.816249         2.861378
 C        -2.090466         1.948199         1.984045
 C        -0.680461         1.516022         2.135472
 C        -0.687942         1.283046         0.546709
 O        -0.185115         0.048714         0.123548
 C        -0.311102         2.521035        -0.342690
 C        -1.046143         3.641892         0.326555
 C        -2.229935         2.944036         0.923730
 C        -2.283771         1.459164         0.593015
 H        -2.901679         2.085245         3.810396
 H         0.062809         2.232805         2.560109
 H        -0.616567         0.412482         2.431369
 H        -0.853764        -0.373168        -0.426479
 H         0.735922         2.875785        -0.496646
 H        -0.718960         2.344564        -1.354488
 H        -0.541851         3.935518         1.259490
 H        -1.319323         4.499333        -0.348962
 H        -3.224640         3.381139         0.965382
 H        -3.159119         0.882275         0.200540
