19
Iteration:  4791
 O        -3.128189         1.825286         2.997646
 C        -2.196587         1.863251         1.939652
 C        -0.705041         1.512853         1.967282
 C        -0.730052         1.328831         0.437581
 O        -0.230845        -0.049908         0.212108
 C        -0.152992         2.526290        -0.183958
 C        -1.017421         3.740570         0.425622
 C        -2.363431         3.011194         0.870352
 C        -2.331014         1.480405         0.470802
 H        -3.011723         0.910647         3.342085
 H         0.053829         2.135556         2.417776
 H        -0.609372         0.610210         2.402869
 H         0.066529        -0.078355        -0.702771
 H         0.974876         2.523258        -0.096990
 H        -0.388997         2.643079        -1.220969
 H        -0.578026         4.168246         1.261043
 H        -1.221112         4.504070        -0.345517
 H        -3.209377         3.679045         1.026279
 H        -2.959007         0.814820        -0.197920
