19
Iteration:  2752
 O        -3.101362         1.705572         3.077692
 C        -2.090537         2.024263         2.031007
 C        -0.693847         1.561429         2.032480
 C        -0.798760         1.276402         0.514926
 O        -0.161052         0.050130        -0.070152
 C        -0.171892         2.442687        -0.251230
 C        -1.001209         3.650064         0.393855
 C        -2.364344         2.986870         0.836940
 C        -2.398704         1.491590         0.595248
 H        -3.527595         2.485077         3.372662
 H         0.070961         2.362260         2.329615
 H        -0.481838         0.601734         2.521443
 H        -0.828536        -0.583487        -0.313607
 H         0.910542         2.440414         0.031906
 H        -0.286508         2.466623        -1.356809
 H        -0.543508         4.120749         1.262985
 H        -1.133837         4.238523        -0.475911
 H        -3.182623         3.647067         0.748384
 H        -3.141949         0.802488         0.283274
