19
Iteration:  1784charge 0 multiplicity 1
 O        -3.138035         2.067476         3.068573
 C        -2.202619         1.924636         2.031307
 C        -0.823788         1.266367         2.063830
 C        -0.706269         1.216815         0.552332
 O        -0.136207         0.084010        -0.057452
 C        -0.193141         2.544391        -0.124623
 C        -1.208470         3.714693         0.202348
 C        -2.180248         2.884612         0.910453
 C        -2.218928         1.469966         0.480117
 H        -3.368109         1.243407         3.460823
 H        -0.087158         1.663585         2.730124
 H        -1.000156         0.165529         2.319424
 H         0.277571        -0.352406         0.697701
 H         0.820447         2.873814         0.184587
 H        -0.148305         2.562984        -1.221250
 H        -0.786245         4.580912         0.706717
 H        -1.505295         3.991475        -0.808603
 H        -3.093081         3.524954         0.979629
 H        -2.897947         0.952093        -0.255673
