19
Iteration:  3274charge 0 multiplicity 1
 O        -3.047754         1.878150         3.171989
 C        -2.231560         1.909084         2.048551
 C        -0.722370         1.466251         2.060598
 C        -0.783857         1.273574         0.550338
 O        -0.221209         0.072808         0.007617
 C        -0.097536         2.500787        -0.148452
 C        -1.071477         3.670419         0.150859
 C        -2.315157         2.948269         0.853454
 C        -2.247370         1.351415         0.560732
 H        -4.022445         2.145570         2.996915
 H        -0.009825         2.122563         2.634689
 H        -0.742346         0.510340         2.501227
 H        -0.383141         0.307770        -0.903881
 H         0.888690         2.676941         0.344722
 H         0.061205         2.663933        -1.239824
 H        -0.722493         4.574018         0.634285
 H        -1.455828         3.926595        -0.823665
 H        -3.264096         3.386611         0.641546
 H        -2.986041         0.903505        -0.194075
