19
Iteration:  3542
 O        -3.048495         1.601650         2.945445
 C        -2.142113         2.009094         1.957420
 C        -0.653605         1.555683         1.999996
 C        -0.680408         1.291997         0.468780
 O        -0.250433        -0.034863         0.258743
 C        -0.189024         2.439745        -0.250374
 C        -1.080819         3.658819         0.369314
 C        -2.378140         3.078620         0.774223
 C        -2.417892         1.559974         0.557901
 H        -3.150412         2.316972         3.574488
 H        -0.040963         2.410729         2.376669
 H        -0.477678         0.736626         2.724109
 H         0.303216         0.025625        -0.565263
 H         0.930491         2.535102        -0.126274
 H        -0.454559         2.475172        -1.410794
 H        -0.544199         4.091220         1.197120
 H        -1.223555         4.519409        -0.295076
 H        -3.305607         3.555015         0.717349
 H        -3.331423         1.000239         0.378577
