19
Iteration:    37charge 0 multiplicity 1
 O        -3.045272         1.874348         3.117181
 C        -2.325787         1.928341         1.912979
 C        -0.746608         1.498388         1.985356
 C        -0.743507         1.271914         0.538977
 O        -0.046527         0.092886         0.196926
 C        -0.204550         2.501767        -0.182171
 C        -1.034813         3.640017         0.303212
 C        -2.395057         2.949820         0.657145
 C        -2.298910         1.425672         0.511243
 H        -3.846198         1.362243         3.026959
 H        -0.040237         2.401980         2.349401
 H        -0.609986         0.620319         2.680944
 H        -0.048629        -0.491822         0.956744
 H         0.853107         2.528106        -0.093349
 H        -0.323308         2.371805        -1.200637
 H        -0.603771         4.159758         1.195320
 H        -1.119816         4.471987        -0.430407
 H        -3.384418         3.425254         0.391737
 H        -2.989903         0.964479        -0.257006
