19
Iteration:  4036
 O        -3.189106         1.821110         3.051757
 C        -2.228628         1.833103         2.000100
 C        -0.802248         1.388890         2.096349
 C        -0.694731         1.339868         0.505970
 O        -0.253269         0.037189         0.100942
 C        -0.137912         2.600730        -0.236117
 C        -1.013964         3.712199         0.276684
 C        -2.272800         2.901810         0.903077
 C        -2.175323         1.484583         0.481923
 H        -3.421380         2.739789         3.430824
 H        -0.048126         1.893817         2.688483
 H        -0.866460         0.375194         2.309894
 H         0.274640         0.242595        -0.720357
 H         0.880053         2.609898        -0.018515
 H        -0.176327         2.362394        -1.340201
 H        -0.538135         4.362777         1.013395
 H        -1.580286         4.228710        -0.510573
 H        -3.279677         3.384996         0.832878
 H        -2.840613         0.803719        -0.093700
