19
Iteration:   700
 O        -2.999781         1.831713         3.050432
 C        -2.249430         1.970207         1.835609
 C        -0.824738         1.348885         2.041336
 C        -0.784159         1.194306         0.447269
 O        -0.207862         0.028724         0.138197
 C        -0.104686         2.506619        -0.003802
 C        -0.962933         3.712249         0.319694
 C        -2.324829         3.008408         0.801870
 C        -2.348859         1.566598         0.489084
 H        -3.700503         1.195990         2.994565
 H        -0.031289         1.922454         2.675505
 H        -1.045919         0.442734         2.562254
 H         0.143179        -0.006849        -0.767800
 H         0.825043         2.508033         0.599210
 H         0.101411         2.631895        -1.126066
 H        -0.731440         4.544447         1.051426
 H        -1.219906         4.345879        -0.505477
 H        -3.186371         3.711768         0.754867
 H        -3.211150         1.124411        -0.061690
