19
Iteration:   142charge 0 multiplicity 1
 O        -2.930202         1.964009         3.082072
 C        -2.264752         1.919399         1.911520
 C        -0.772635         1.354561         2.091516
 C        -0.795520         1.219612         0.515954
 O        -0.134238         0.049225         0.142045
 C        -0.153018         2.597922        -0.041818
 C        -1.161677         3.718173         0.253467
 C        -2.320278         2.910994         0.711666
 C        -2.303745         1.428157         0.402886
 H        -3.793467         1.512000         3.033526
 H         0.026919         2.253766         2.453563
 H        -0.653019         0.344446         2.586655
 H        -0.323902        -0.532604         0.885851
 H         0.819625         2.903869         0.396797
 H        -0.235854         2.518664        -1.180801
 H        -0.798487         4.313590         1.065507
 H        -1.266986         4.299932        -0.642909
 H        -3.308624         3.415883         0.522581
 H        -2.746791         0.853954        -0.484076
