19
Iteration:  3957
 O        -3.081190         1.861267         3.040600
 C        -2.169245         1.858721         1.925505
 C        -0.839126         1.346769         2.167976
 C        -0.679023         1.309566         0.546615
 O        -0.308658         0.092095        -0.002067
 C        -0.068201         2.569643        -0.059466
 C        -1.126936         3.683644         0.209505
 C        -2.311613         2.886047         0.858015
 C        -2.239776         1.489355         0.440827
 H        -3.143842         2.825420         3.399539
 H        -0.263936         1.865759         2.940530
 H        -0.728784         0.275621         2.572182
 H         0.618307         0.015938        -0.360499
 H         0.963195         2.871707         0.220861
 H        -0.040166         2.283499        -1.159977
 H        -0.681780         4.412545         0.927362
 H        -1.656115         4.174797        -0.661021
 H        -3.268837         3.330877         0.896401
 H        -2.937444         0.838185        -0.097800
