19
Iteration:   765charge 0 multiplicity 1
 O        -3.205381         1.832151         2.894802
 C        -2.203274         1.920345         1.991803
 C        -0.760995         1.394324         2.154640
 C        -0.691987         1.257506         0.555215
 O        -0.290608         0.068796         0.007127
 C        -0.199712         2.504710        -0.261615
 C        -0.961013         3.657814         0.405743
 C        -2.236787         2.981289         0.873174
 C        -2.235899         1.472223         0.534317
 H        -3.732312         2.628514         3.112645
 H        -0.034963         2.082854         2.709969
 H        -0.788262         0.469412         2.690675
 H         0.681847        -0.093884         0.098728
 H         0.885792         2.743935        -0.313335
 H        -0.579614         2.389394        -1.345833
 H        -0.365137         4.113513         1.263381
 H        -1.056908         4.507688        -0.277013
 H        -3.225961         3.409800         1.060643
 H        -2.957982         0.945238        -0.111747
