19
Iteration:  2853charge 0 multiplicity 1
 O        -2.965820         1.927663         3.063001
 C        -2.154766         1.906933         1.967492
 C        -0.714166         1.409293         2.146743
 C        -0.717211         1.224359         0.565567
 O        -0.346243         0.032315        -0.077488
 C        -0.149156         2.567845        -0.104514
 C        -1.120103         3.692143         0.292006
 C        -2.377192         2.907004         0.757811
 C        -2.270307         1.467877         0.599984
 H        -3.835138         1.619573         2.699011
 H         0.173013         2.017072         2.465176
 H        -0.754244         0.338794         2.514093
 H         0.466800         0.378609        -0.539137
 H         0.883888         2.700968         0.268002
 H        -0.021507         2.374618        -1.193883
 H        -0.673171         4.253988         1.128916
 H        -1.502814         4.464572        -0.402627
 H        -3.333041         3.509990         0.848722
 H        -2.955877         0.753281         0.108962
