19
Iteration:  1118charge 0 multiplicity 1
 O        -3.244507         1.669348         2.926586
 C        -2.175199         1.964973         2.052120
 C        -0.692993         1.457579         2.091915
 C        -0.686954         1.229160         0.543855
 O        -0.242609         0.070049         0.072161
 C        -0.165058         2.483379        -0.249157
 C        -1.044435         3.730453         0.233615
 C        -2.182797         3.032766         0.868812
 C        -2.263336         1.554256         0.610998
 H        -3.020207         2.144990         3.703939
 H        -0.067158         2.233730         2.642868
 H        -0.780702         0.566563         2.618422
 H        -1.034332        -0.529441         0.105468
 H         0.840416         2.823241        -0.086247
 H        -0.397553         2.238041        -1.298425
 H        -0.434776         4.487029         0.749298
 H        -1.271040         4.288467        -0.647496
 H        -3.187541         3.433443         0.802550
 H        -2.901584         0.924678        -0.034138
