19
Iteration:  3335
 O        -3.002246         1.713304         3.108964
 C        -2.177591         1.912504         1.923457
 C        -0.766983         1.505901         2.076527
 C        -0.666634         1.284494         0.518025
 O        -0.255241        -0.013146         0.299339
 C        -0.235816         2.648987        -0.455805
 C        -1.002928         3.735822         0.339115
 C        -2.296688         2.923746         0.794334
 C        -2.253530         1.471362         0.512042
 H        -3.946336         2.041192         2.830176
 H        -0.208973         2.159014         2.735550
 H        -0.780221         0.461098         2.478109
 H        -0.664542        -0.213055        -0.535014
 H         0.827170         2.723070        -0.544529
 H        -0.676943         2.460576        -1.412933
 H        -0.770869         4.161298         1.327584
 H        -1.199782         4.617817        -0.339899
 H        -3.230598         3.505920         0.920568
 H        -2.991481         0.956194        -0.108154
