19
Iteration:  1548
 O        -3.123586         1.971640         3.024170
 C        -2.240194         1.944484         1.975357
 C        -0.840145         1.328342         2.161966
 C        -0.778449         1.219293         0.497333
 O        -0.211248         0.030684        -0.056146
 C        -0.064938         2.510517        -0.071614
 C        -1.140395         3.680751         0.187640
 C        -2.244908         3.016985         0.964886
 C        -2.253080         1.471510         0.496390
 H        -2.644148         1.352313         3.640126
 H        -0.090888         2.035300         2.643971
 H        -0.778317         0.315946         2.545010
 H         0.752857         0.019144        -0.311834
 H         0.957862         2.617585         0.369778
 H         0.134578         2.525988        -1.164834
 H        -0.932598         4.692956         0.635285
 H        -1.639666         3.930290        -0.792872
 H        -3.277200         3.315450         0.871334
 H        -2.967605         0.976891        -0.104620
