19
Iteration:  1418
 O        -3.112102         1.941499         3.030618
 C        -2.164740         1.903807         2.019388
 C        -0.731026         1.459930         2.098974
 C        -0.694870         1.306711         0.485977
 O        -0.375775        -0.094690        -0.060729
 C        -0.037710         2.617999        -0.060505
 C        -1.091326         3.676060         0.260999
 C        -2.328856         2.982543         0.809463
 C        -2.252125         1.428365         0.518294
 H        -3.180971         1.011298         3.404997
 H        -0.157871         2.180048         2.705506
 H        -0.767594         0.452636         2.608654
 H         0.422024        -0.487454         0.333389
 H         0.931890         2.939153         0.430896
 H         0.122465         2.419960        -1.121392
 H        -0.819271         4.514290         0.888068
 H        -1.567185         4.163592        -0.625603
 H        -3.220661         3.593611         0.892479
 H        -2.934186         1.037960        -0.269521
