19
Iteration:   837
 O        -3.105822         1.899478         2.971766
 C        -2.167549         1.967593         1.993743
 C        -0.768643         1.367239         2.135745
 C        -0.713422         1.317957         0.562534
 O        -0.279639         0.112992         0.000754
 C        -0.076072         2.485137        -0.056104
 C        -1.073887         3.655652         0.264909
 C        -2.326250         2.940307         0.812559
 C        -2.242704         1.492658         0.426758
 H        -3.045805         0.943469         3.266502
 H        -0.063975         2.061553         2.563836
 H        -0.547882         0.379573         2.657109
 H        -0.903069        -0.583944         0.275461
 H         0.878229         2.600629         0.449724
 H         0.067812         2.218154        -1.067392
 H        -0.720458         4.447028         0.885403
 H        -1.442317         4.308666        -0.552355
 H        -3.289522         3.465844         1.020537
 H        -2.921259         1.128481        -0.383126
