19
Iteration:  4259
 O        -3.118929         1.599091         2.915799
 C        -2.193541         1.925291         1.996903
 C        -0.688253         1.543549         2.111872
 C        -0.687157         1.351715         0.601407
 O        -0.403689         0.101231         0.062874
 C        -0.220944         2.543035        -0.278152
 C        -1.017949         3.649059         0.312277
 C        -2.305796         2.978271         0.810769
 C        -2.175976         1.510653         0.561514
 H        -3.307835         2.435771         3.494333
 H         0.169896         1.948346         2.663450
 H        -0.791896         0.504257         2.565649
 H         0.280371        -0.399718         0.538889
 H         0.895531         2.780542        -0.075218
 H        -0.400286         2.330116        -1.309589
 H        -0.386737         4.208178         1.097734
 H        -1.178068         4.434847        -0.447785
 H        -3.236747         3.497672         0.883387
 H        -2.795646         0.906999        -0.112142
