19
Iteration:  4481
 O        -3.126121         1.846293         2.998049
 C        -2.152648         1.910473         1.973397
 C        -0.712368         1.475671         2.155310
 C        -0.663157         1.254280         0.543454
 O        -0.286510        -0.009082         0.006302
 C        -0.232295         2.564814        -0.207564
 C        -1.023491         3.714721         0.356777
 C        -2.313461         2.975190         0.821105
 C        -2.286096         1.478495         0.521806
 H        -3.538672         0.928961         2.813925
 H         0.025462         2.121569         2.624546
 H        -0.816855         0.525663         2.742060
 H         0.616351         0.094489        -0.298958
 H         0.854007         2.753443        -0.017898
 H        -0.312307         2.410718        -1.233511
 H        -0.569980         4.290052         1.124703
 H        -1.213101         4.461401        -0.416426
 H        -3.257996         3.425994         0.867729
 H        -3.165271         0.986268         0.116611
