19
Iteration:  1422charge 0 multiplicity 1
 O        -3.107520         1.916888         3.020959
 C        -2.183673         1.911642         2.016855
 C        -0.714666         1.433730         2.135077
 C        -0.677994         1.330235         0.501746
 O        -0.359482        -0.101989        -0.052953
 C        -0.061234         2.593402        -0.053489
 C        -1.129882         3.695778         0.214956
 C        -2.320995         2.999380         0.821836
 C        -2.249828         1.475359         0.512351
 H        -3.258710         1.040599         3.347204
 H        -0.066977         2.095053         2.695552
 H        -0.763534         0.393803         2.608766
 H         0.439291        -0.502356         0.335130
 H         0.978374         2.776875         0.297545
 H        -0.022867         2.430595        -1.140775
 H        -0.764239         4.457565         0.932061
 H        -1.389281         4.245582        -0.728623
 H        -3.260772         3.540308         0.922086
 H        -2.945726         1.089628        -0.191078
