19
Iteration:  3797charge 0 multiplicity 1
 O        -3.083000         1.938016         3.057600
 C        -2.195399         1.932861         1.990259
 C        -0.816924         1.313287         2.150362
 C        -0.680106         1.307500         0.511954
 O        -0.286563         0.137362        -0.158513
 C        -0.059843         2.601837         0.005910
 C        -1.132805         3.626437         0.155256
 C        -2.349628         2.897518         0.828520
 C        -2.218367         1.361431         0.587655
 H        -3.245080         2.858973         3.493294
 H         0.138810         1.813686         2.703385
 H        -1.050514         0.352377         2.482728
 H         0.522384        -0.321428         0.206463
 H         0.879327         2.837619         0.451298
 H         0.133040         2.338490        -1.035739
 H        -0.929976         4.486117         0.730020
 H        -1.340642         3.908002        -0.862612
 H        -3.358571         3.189517         0.786441
 H        -2.981932         0.720059         0.256315
