19
Iteration:  3964
 O        -3.089731         1.901635         3.096896
 C        -2.203332         1.820812         1.986761
 C        -0.815731         1.346131         2.151901
 C        -0.678696         1.297923         0.557905
 O        -0.303324         0.107459        -0.028954
 C        -0.028728         2.585858        -0.060616
 C        -1.139002         3.638242         0.235842
 C        -2.314064         2.891770         0.836397
 C        -2.276530         1.427042         0.371255
 H        -3.154328         2.839249         3.375535
 H        -0.089662         2.031851         2.718479
 H        -0.965482         0.285155         2.563794
 H         0.581197         0.339134        -0.373239
 H         0.971031         2.952337         0.348909
 H         0.088977         2.443917        -1.139547
 H        -0.696270         4.446935         0.835105
 H        -1.287439         4.045876        -0.753767
 H        -3.283173         3.422384         0.875277
 H        -2.989233         0.823044        -0.126208
