19
Iteration:  1168charge 0 multiplicity 1
 O        -3.083434         1.972760         3.063798
 C        -2.270909         1.924747         1.947036
 C        -0.717274         1.486949         1.989107
 C        -0.846017         1.231857         0.469366
 O        -0.177489        -0.033638         0.045271
 C        -0.119229         2.578637        -0.135016
 C        -1.037199         3.694481         0.396939
 C        -2.322663         2.933222         0.825665
 C        -2.304395         1.455938         0.445095
 H        -3.064135         0.986247         3.285241
 H         0.112967         2.116735         2.326532
 H        -0.624841         0.453614         2.447819
 H        -0.100776        -0.594828         0.863177
 H         0.916179         2.480540         0.288802
 H        -0.172802         2.606688        -1.228057
 H        -0.607355         4.191374         1.297291
 H        -1.092112         4.519782        -0.372955
 H        -3.323108         3.338024         0.676701
 H        -3.040105         1.090751        -0.229852
