19
Iteration:  4175charge 0 multiplicity 1
 O        -2.968905         1.914165         3.058809
 C        -2.220587         2.002650         1.973710
 C        -0.859344         1.238437         2.122550
 C        -0.717597         1.276711         0.581917
 O        -0.168088         0.030830        -0.059673
 C        -0.137881         2.544209         0.024127
 C        -1.171685         3.737316         0.284027
 C        -2.316138         2.904575         0.760414
 C        -2.261413         1.440958         0.510836
 H        -3.687887         2.488411         3.112251
 H        -0.040511         1.794405         2.629841
 H        -0.882294         0.118250         2.324580
 H         0.338138         0.411250        -0.803792
 H         0.929455         2.589235         0.245018
 H        -0.219146         2.506109        -1.080242
 H        -0.793907         4.352180         1.080540
 H        -1.402462         4.304177        -0.630644
 H        -3.294784         3.339759         0.471564
 H        -3.111985         1.110135        -0.055304
