19
Iteration:  3063charge 0 multiplicity 1
 O        -3.104738         1.954515         2.940518
 C        -2.093097         1.958673         1.935065
 C        -0.566831         1.308634         2.012945
 C        -0.752951         1.210009         0.491638
 O        -0.142325        -0.016740         0.057578
 C        -0.252714         2.546467        -0.072555
 C        -1.223132         3.706389         0.354842
 C        -2.439239         3.031561         0.885416
 C        -2.257535         1.370741         0.586255
 H        -3.026714         2.829016         3.283865
 H         0.304355         1.908974         2.409876
 H        -0.652980         0.248541         2.408251
 H        -0.022483         0.062407        -0.894084
 H         0.771563         2.830819         0.215651
 H        -0.011790         2.565496        -1.208498
 H        -0.845705         4.405380         1.102522
 H        -1.452798         4.238030        -0.581726
 H        -3.450310         3.442204         0.882630
 H        -3.212759         0.745191         0.454186
