19
Iteration:  1745charge 0 multiplicity 1
 O        -2.959745         2.002901         3.052180
 C        -2.156360         1.956600         1.873439
 C        -0.803595         1.451422         2.053233
 C        -0.775928         1.241481         0.492948
 O        -0.243741         0.033499        -0.030303
 C        -0.161898         2.583098         0.109505
 C        -1.084877         3.652853         0.299749
 C        -2.350622         2.901573         0.679040
 C        -2.383995         1.383481         0.490416
 H        -2.830590         1.104797         3.548199
 H         0.037567         2.097572         2.533324
 H        -0.850768         0.503889         2.591351
 H         0.669433        -0.181347         0.255859
 H         0.757648         2.565965         0.701429
 H         0.121046         2.422186        -0.972716
 H        -0.894784         4.282635         1.206109
 H        -1.371122         4.343540        -0.532600
 H        -3.318749         3.417660         0.718327
 H        -3.040768         0.700448        -0.027174
