19
Iteration:   349charge 0 multiplicity 1
 O        -3.122242         1.882620         3.093873
 C        -2.257997         1.934982         1.944131
 C        -0.829842         1.329030         2.095005
 C        -0.804773         1.232908         0.561457
 O        -0.147321         0.038018         0.058274
 C        -0.050039         2.589207        -0.176345
 C        -0.986161         3.729033         0.264860
 C        -2.279958         3.009149         0.799056
 C        -2.364951         1.494314         0.430303
 H        -3.742481         1.177085         2.875315
 H         0.018338         1.863186         2.577386
 H        -0.990068         0.382944         2.523462
 H         0.426669        -0.414253         0.727165
 H         0.921561         2.600164         0.291104
 H         0.019358         2.420872        -1.261727
 H        -0.549562         4.395907         1.063457
 H        -1.203442         4.548456        -0.429743
 H        -3.286402         3.473424         0.747794
 H        -2.996821         0.882126        -0.208274
