19
Iteration:  1571charge 0 multiplicity 1
 O        -3.126788         1.973003         3.041771
 C        -2.176399         1.888514         2.054754
 C        -0.766166         1.307383         2.129515
 C        -0.695380         1.336189         0.595367
 O        -0.242908         0.143877        -0.094966
 C        -0.064834         2.487968        -0.016680
 C        -1.113789         3.589267         0.043222
 C        -2.293989         2.930415         0.896865
 C        -2.368026         1.543451         0.545930
 H        -3.371596         1.079040         3.259219
 H         0.055555         1.840793         2.637697
 H        -0.871584         0.259547         2.514946
 H         0.693165        -0.047835        -0.150073
 H         0.941744         2.639093         0.423725
 H         0.188651         2.242117        -1.051279
 H        -0.703291         4.498589         0.566996
 H        -1.496318         3.985516        -0.942577
 H        -3.229726         3.506149         0.980947
 H        -3.133657         1.017369        -0.012527
