19
Iteration:  4340
 O        -3.095654         1.993731         3.058782
 C        -2.259180         1.950170         1.981679
 C        -0.761560         1.375957         2.185284
 C        -0.675225         1.324361         0.536740
 O        -0.272679         0.028879        -0.096891
 C        -0.106046         2.572080        -0.101102
 C        -1.150773         3.680166         0.326106
 C        -2.341482         2.915966         0.806873
 C        -2.215762         1.379246         0.478691
 H        -2.974856         1.115678         3.558286
 H        -0.142563         1.946894         2.846294
 H        -0.911225         0.309240         2.500213
 H         0.567851         0.043133        -0.518868
 H         0.903222         3.006666         0.142680
 H        -0.136283         2.267494        -1.246357
 H        -0.633842         4.018493         1.231398
 H        -1.075140         4.478143        -0.521056
 H        -3.337881         3.277546         0.560170
 H        -2.833271         0.685997        -0.151668
