19
Iteration:  3248charge 0 multiplicity 1
 O        -2.919442         1.951168         3.066584
 C        -2.112696         1.979051         2.017103
 C        -0.777735         1.223975         2.109924
 C        -0.750572         1.251636         0.583787
 O        -0.171107        -0.010525         0.050882
 C        -0.160556         2.592186        -0.107222
 C        -1.209779         3.664038         0.171990
 C        -2.374186         2.949690         0.831428
 C        -2.310679         1.497078         0.431840
 H        -3.825676         2.415942         3.041113
 H        -0.062928         1.671432         2.769387
 H        -1.035863         0.205129         2.508440
 H         0.397785         0.307691        -0.661741
 H         0.788469         2.942379         0.265312
 H        -0.110052         2.533664        -1.191093
 H        -0.979556         4.480308         0.900039
 H        -1.590360         4.121030        -0.786861
 H        -3.348926         3.525581         0.810629
 H        -2.997774         0.727338         0.366728
