19
Iteration:  1153charge 0 multiplicity 1
 O        -3.091785         1.812598         3.032574
 C        -2.172684         1.970618         1.895756
 C        -0.787208         1.501607         2.018770
 C        -0.673824         1.257862         0.473791
 O        -0.257031         0.069854         0.063805
 C        -0.147722         2.448933        -0.146046
 C        -0.979683         3.662952         0.387414
 C        -2.344721         3.022549         0.786035
 C        -2.362233         1.472549         0.477989
 H        -2.806480         1.203062         3.678279
 H        -0.186586         2.262581         2.469825
 H        -0.668917         0.665924         2.715378
 H        -0.350670        -0.538688         0.843734
 H         0.855729         2.751000         0.174038
 H        -0.053669         2.310059        -1.244114
 H        -0.509777         4.224836         1.181489
 H        -1.330801         4.300407        -0.385390
 H        -3.236039         3.673610         0.781834
 H        -3.096510         0.863461        -0.128886
