19
Iteration:  1281
 O        -3.026130         1.812348         2.967977
 C        -2.175556         1.935385         1.917013
 C        -0.763288         1.507941         2.089884
 C        -0.687288         1.352206         0.495194
 O        -0.389580        -0.052870         0.189469
 C        -0.080289         2.533429        -0.200476
 C        -1.056310         3.709210         0.356224
 C        -2.375741         2.935514         0.810445
 C        -2.181969         1.543612         0.466538
 H        -2.918432         0.911124         3.400671
 H        -0.098412         2.251003         2.558788
 H        -0.692679         0.477758         2.430739
 H        -1.209735        -0.275879        -0.287692
 H         0.933249         2.556725         0.223124
 H         0.136731         2.467780        -1.288365
 H        -0.693346         4.236886         1.285269
 H        -1.222035         4.543119        -0.354070
 H        -3.397417         3.359802         0.834206
 H        -2.919037         0.992337        -0.175742
