19
Iteration:  4934
 O        -3.154038         1.878213         2.975250
 C        -2.153645         1.954298         2.001258
 C        -0.730475         1.385525         1.993817
 C        -0.803061         1.271862         0.503131
 O        -0.131038         0.068939         0.106141
 C        -0.095849         2.529446        -0.117823
 C        -1.088671         3.677132         0.291865
 C        -2.324678         2.951867         0.920217
 C        -2.405886         1.450042         0.499038
 H        -2.884247         1.128946         3.582227
 H         0.243562         1.861977         2.395250
 H        -0.642117         0.384238         2.352837
 H        -0.015271         0.175766        -0.872773
 H         0.945983         2.536687         0.378031
 H         0.094190         2.650523        -1.166971
 H        -0.691874         4.362273         0.976631
 H        -1.345717         4.288620        -0.622140
 H        -3.252295         3.547800         1.064979
 H        -3.248668         1.145376        -0.120897
