19
Iteration:  1957
 O        -2.953407         2.078383         3.105738
 C        -2.191021         1.893026         1.935372
 C        -0.722806         1.345169         2.062522
 C        -0.714492         1.286322         0.481662
 O        -0.309829        -0.001007        -0.019415
 C        -0.122534         2.566845        -0.076079
 C        -1.179011         3.660618         0.279188
 C        -2.435918         2.885332         0.838795
 C        -2.210128         1.468965         0.457342
 H        -3.554010         1.302882         3.342530
 H        -0.062047         1.841767         2.839191
 H        -0.824234         0.225519         2.425540
 H         0.544087        -0.305986         0.358461
 H         0.753388         2.897406         0.564061
 H         0.223155         2.591675        -1.106264
 H        -0.979212         4.482870         1.004704
 H        -1.347269         4.240139        -0.703443
 H        -3.480159         3.227755         0.748697
 H        -2.730884         0.868261        -0.241648
