19
Iteration:   556charge 0 multiplicity 1
 O        -3.164235         1.769070         2.994882
 C        -2.193169         2.036101         2.001563
 C        -0.837049         1.341196         2.121151
 C        -0.809814         1.244666         0.426198
 O        -0.136246        -0.043122         0.140092
 C        -0.113599         2.559873        -0.174382
 C        -0.974684         3.716022         0.303901
 C        -2.258282         3.054985         0.895773
 C        -2.285206         1.551836         0.521103
 H        -4.043935         1.591636         2.549923
 H        -0.102458         2.026279         2.678674
 H        -0.801778         0.389157         2.601610
 H        -0.117744        -0.156464        -0.812237
 H         0.898329         2.501890         0.124309
 H        -0.047115         2.502077        -1.274817
 H        -0.483617         4.437722         0.930464
 H        -1.215672         4.338725        -0.565373
 H        -3.174301         3.636113         0.812226
 H        -3.018250         0.936105         0.026525
