19
Iteration:  3768charge 0 multiplicity 1
 O        -3.010412         1.841182         3.034252
 C        -2.124034         1.972530         1.970031
 C        -0.747233         1.322268         2.072133
 C        -0.783492         1.242246         0.446363
 O        -0.116095         0.059394         0.044928
 C        -0.192697         2.558829        -0.009478
 C        -1.188707         3.690873         0.193226
 C        -2.375193         2.944527         0.796281
 C        -2.292539         1.524039         0.469285
 H        -3.212922         2.673294         3.491190
 H         0.120548         1.783670         2.449053
 H        -0.667624         0.406437         2.811200
 H        -0.598002        -0.703437         0.389126
 H         0.822223         2.818101         0.483476
 H         0.045344         2.383129        -1.090930
 H        -0.879919         4.438061         1.014954
 H        -1.275622         4.260065        -0.753796
 H        -3.343444         3.357466         1.033930
 H        -3.113039         0.986003         0.005108
