19
Iteration:  4770charge 0 multiplicity 1
 O        -3.113796         1.825070         2.918880
 C        -2.128706         1.960996         1.994987
 C        -0.688100         1.491029         2.049333
 C        -0.747454         1.204299         0.501223
 O        -0.260730        -0.019598         0.081573
 C        -0.138180         2.540650        -0.120289
 C        -1.107395         3.682744         0.345706
 C        -2.288291         2.986175         0.900937
 C        -2.330835         1.530749         0.536910
 H        -3.278808         0.895411         2.929451
 H         0.106429         2.149102         2.368654
 H        -0.566407         0.666463         2.688885
 H         0.091586         0.124615        -0.816121
 H         0.816859         2.832866         0.405975
 H         0.090329         2.540358        -1.179949
 H        -0.584806         4.346463         0.981466
 H        -1.512309         4.294639        -0.496388
 H        -3.302834         3.333143         0.769446
 H        -3.301733         1.045249         0.202690
