19
Iteration:  3029
 O        -3.027523         1.836376         3.260852
 C        -2.290742         1.859930         2.007239
 C        -0.870245         1.337635         2.135108
 C        -0.729710         1.285003         0.531389
 O        -0.065522         0.134777         0.038556
 C        -0.142065         2.516252        -0.268757
 C        -1.097770         3.661728         0.187634
 C        -2.318977         2.981446         0.855781
 C        -2.280828         1.458008         0.437196
 H        -3.442311         2.663965         3.308945
 H        -0.233874         1.965176         2.794625
 H        -0.810573         0.272926         2.564863
 H        -0.057582         0.259634        -0.947310
 H         0.917083         2.698943        -0.066067
 H        -0.424334         2.168256        -1.311077
 H        -0.516439         4.431742         0.693635
 H        -1.471465         4.166096        -0.721992
 H        -3.179756         3.604765         0.729077
 H        -3.099277         0.901678        -0.084524
