19
Iteration:  4155charge 0 multiplicity 1
 O        -3.102497         1.834053         3.033549
 C        -2.126651         2.024854         1.952825
 C        -0.730130         1.317568         2.036771
 C        -0.754478         1.200036         0.478975
 O        -0.137545         0.067911         0.004477
 C        -0.127798         2.541128        -0.015242
 C        -1.117051         3.674956         0.305613
 C        -2.413173         2.995415         0.799151
 C        -2.307728         1.442874         0.549933
 H        -3.632660         2.656742         3.003044
 H         0.212101         1.810979         2.631082
 H        -1.067507         0.431825         2.626938
 H        -0.054481         0.100096        -0.944396
 H         0.810569         2.640520         0.446240
 H         0.166529         2.501376        -1.155500
 H        -0.631556         4.244128         1.088746
 H        -1.294283         4.322693        -0.568118
 H        -3.304932         3.697608         0.984691
 H        -3.016029         0.671628         0.345900
