19
Iteration:  1278
 O        -3.009437         1.805538         2.959949
 C        -2.164973         1.920109         1.928598
 C        -0.764168         1.531170         2.087406
 C        -0.708162         1.361767         0.487629
 O        -0.393950        -0.050172         0.189305
 C        -0.072391         2.573089        -0.180719
 C        -1.059523         3.682519         0.364946
 C        -2.372071         2.950047         0.806899
 C        -2.199286         1.509870         0.444509
 H        -2.950871         1.025553         3.457142
 H        -0.076062         2.153351         2.624090
 H        -0.711973         0.403531         2.486473
 H        -1.226358        -0.247031        -0.229005
 H         0.971835         2.490904         0.238395
 H         0.122311         2.395243        -1.242587
 H        -0.656221         4.289035         1.200900
 H        -1.305321         4.467201        -0.400315
 H        -3.318041         3.490641         0.803217
 H        -2.886093         0.983155        -0.234323
