19
Iteration:  3365charge 0 multiplicity 1
 O        -3.056450         1.769064         3.088779
 C        -2.176421         1.946939         1.964637
 C        -0.754343         1.537548         1.977087
 C        -0.768200         1.221118         0.526265
 O        -0.148382         0.078990         0.155262
 C        -0.245995         2.457254        -0.269125
 C        -1.037893         3.648622         0.332330
 C        -2.275959         2.979720         0.891887
 C        -2.320026         1.501042         0.511058
 H        -3.848725         2.215508         2.828913
 H        -0.030879         2.243757         2.389512
 H        -0.561342         0.594745         2.627761
 H         0.205083         0.119756        -0.772715
 H         0.860691         2.415225        -0.108002
 H        -0.547708         2.262811        -1.325495
 H        -0.629024         4.159703         1.196827
 H        -1.338363         4.231671        -0.527796
 H        -3.307084         3.449020         0.920236
 H        -3.152009         1.104232         0.031290
