19
Iteration:  2470
 O        -2.963740         1.920096         3.135897
 C        -2.175088         1.971871         1.976243
 C        -0.708864         1.491712         2.103517
 C        -0.815139         1.241552         0.501212
 O        -0.223049         0.036385        -0.100157
 C        -0.156353         2.454099         0.009979
 C        -1.074922         3.687996         0.237668
 C        -2.399761         2.938157         0.725170
 C        -2.340581         1.439675         0.547910
 H        -2.639103         1.206919         3.684625
 H        -0.049878         2.305832         2.402722
 H        -0.601085         0.729911         2.912729
 H        -0.938032        -0.206401        -0.689131
 H         0.887096         2.686186         0.315623
 H         0.021332         2.313745        -1.063982
 H        -0.541632         4.337204         0.996012
 H        -1.373593         4.327662        -0.644883
 H        -3.388731         3.461429         0.773416
 H        -2.917412         0.713379        -0.116825
