19
Iteration:  2972
 O        -3.085924         1.840985         2.967579
 C        -2.034940         1.831227         1.987451
 C        -0.582905         1.559539         1.992039
 C        -0.729256         1.293015         0.477999
 O        -0.360354        -0.038968         0.260294
 C        -0.199955         2.610162        -0.248526
 C        -1.194800         3.703283         0.365822
 C        -2.366508         2.904692         0.902912
 C        -2.194904         1.444950         0.515728
 H        -3.939915         1.436065         2.569042
 H         0.071917         2.404510         2.293489
 H        -0.217635         0.599506         2.405517
 H        -0.455788        -0.198811        -0.673209
 H         0.885365         2.802556        -0.032600
 H        -0.213955         2.566766        -1.381190
 H        -0.552615         4.219322         1.102865
 H        -1.232662         4.471720        -0.414580
 H        -3.259788         3.494910         1.114375
 H        -2.885439         1.079722        -0.173007
