19
Iteration:  1514charge 0 multiplicity 1
 O        -3.078836         1.958293         2.925638
 C        -2.162885         1.952579         1.882926
 C        -0.741137         1.428101         2.158592
 C        -0.708146         1.313698         0.494189
 O        -0.331471         0.006465         0.088204
 C        -0.128249         2.563915        -0.177909
 C        -1.095033         3.624242         0.403346
 C        -2.381068         2.931269         0.786177
 C        -2.298564         1.423240         0.525936
 H        -2.536119         1.273433         3.473724
 H         0.107373         2.087744         2.531171
 H        -0.687523         0.485520         2.608016
 H         0.460160         0.040793        -0.494143
 H         0.874035         2.511959         0.217534
 H        -0.132214         2.623615        -1.299251
 H        -0.662634         3.882902         1.420286
 H        -1.164392         4.563698        -0.171797
 H        -3.252954         3.565748         0.804443
 H        -2.853248         0.566267         0.166830
