19
Iteration:  1047charge 0 multiplicity 1
 O        -2.933876         1.965593         3.213146
 C        -2.269469         1.942730         1.898255
 C        -0.871778         1.446413         2.079455
 C        -0.763986         1.202967         0.497768
 O        -0.119487         0.072128        -0.062918
 C        -0.101239         2.511570        -0.125530
 C        -1.074826         3.626419         0.384357
 C        -2.370844         2.922935         0.715372
 C        -2.283733         1.468214         0.446956
 H        -3.833471         2.182868         3.088497
 H        -0.068274         1.993577         2.617464
 H        -1.124010         0.380223         2.457631
 H        -0.293417        -0.824215         0.360692
 H         0.881324         2.569307         0.388658
 H        -0.028860         2.455045        -1.226450
 H        -0.812662         4.088692         1.350268
 H        -1.218069         4.561891        -0.207372
 H        -3.351231         3.405641         0.593759
 H        -3.033737         1.010314        -0.226588
