19
Iteration:  3313charge 0 multiplicity 1
 O        -2.999561         1.733456         2.991588
 C        -2.155611         2.013615         1.925975
 C        -0.613417         1.539637         2.029712
 C        -0.748764         1.289074         0.527058
 O        -0.234190        -0.049100         0.205404
 C        -0.251047         2.563345        -0.223642
 C        -1.083952         3.695991         0.339409
 C        -2.378761         2.992515         0.870879
 C        -2.260365         1.492351         0.529228
 H        -3.868311         1.944174         2.766712
 H         0.220208         2.147452         2.384902
 H        -0.538247         0.501525         2.471267
 H        -0.835847        -0.529498        -0.433845
 H         0.797452         2.579718         0.019082
 H        -0.398569         2.277304        -1.258193
 H        -0.623823         4.309357         1.182376
 H        -1.380408         4.380295        -0.510791
 H        -3.388267         3.428453         0.650632
 H        -2.910267         0.849340        -0.033149
