19
Iteration:  1129charge 0 multiplicity 1
 O        -3.178904         1.678867         2.937650
 C        -2.153220         2.008337         1.989601
 C        -0.734196         1.487786         2.208919
 C        -0.754117         1.330373         0.543869
 O        -0.240631         0.046722         0.054268
 C        -0.184742         2.470456        -0.225844
 C        -0.967315         3.714290         0.210159
 C        -2.315088         3.034931         0.867178
 C        -2.234772         1.490359         0.529896
 H        -2.876716         1.690241         3.867709
 H         0.099325         2.115640         2.641702
 H        -0.647645         0.526307         2.634099
 H        -0.871700        -0.619775         0.298400
 H         0.879231         2.452375        -0.028663
 H        -0.230026         2.284564        -1.311375
 H        -0.448202         4.341625         0.943315
 H        -1.377595         4.275475        -0.593599
 H        -3.268240         3.549196         0.741181
 H        -3.004620         1.213711        -0.189953
