19
Iteration:  4112charge 0 multiplicity 1
 O        -3.226934         1.696837         2.999004
 C        -2.226312         1.881360         1.950358
 C        -0.739455         1.456580         2.125202
 C        -0.658962         1.330998         0.530382
 O        -0.268801        -0.018477         0.152641
 C        -0.167293         2.562238        -0.262464
 C        -1.043802         3.736898         0.316449
 C        -2.249032         3.020940         0.903415
 C        -2.161654         1.517011         0.436646
 H        -3.035189         2.210666         3.759345
 H        -0.043805         2.260909         2.549107
 H        -0.320641         0.538367         2.412114
 H        -0.871813        -0.280824        -0.544619
 H         0.840611         2.801249        -0.154287
 H        -0.341092         2.298048        -1.371271
 H        -0.634224         4.339305         1.107932
 H        -1.298604         4.472701        -0.463302
 H        -3.299379         3.436416         0.898844
 H        -2.687661         0.865755        -0.251357
