19
Iteration:  4667
 O        -3.079237         1.947555         3.085017
 C        -2.253050         1.859957         1.905994
 C        -0.793188         1.471598         2.087335
 C        -0.701096         1.280423         0.533994
 O        -0.270647         0.057808         0.065293
 C        -0.117172         2.502679        -0.186462
 C        -1.060204         3.676308         0.402360
 C        -2.369014         2.897306         0.836116
 C        -2.200270         1.444952         0.403761
 H        -2.816334         1.103514         3.582262
 H        -0.095928         2.160985         2.568341
 H        -0.917672         0.489817         2.543374
 H         0.116901         0.253371        -0.781828
 H         1.014123         2.784023        -0.110580
 H        -0.351388         2.412919        -1.321412
 H        -0.577050         4.227368         1.300656
 H        -1.243255         4.541168        -0.260474
 H        -3.291818         3.508359         0.630961
 H        -2.895465         0.712742         0.013653
