19
Iteration:  4832
 O        -3.169895         1.899528         3.009845
 C        -2.209599         1.906125         1.918850
 C        -0.772320         1.456348         2.067066
 C        -0.687995         1.264219         0.529211
 O        -0.077042         0.076427         0.055967
 C        -0.270556         2.490494        -0.250339
 C        -0.982671         3.734974         0.472318
 C        -2.308985         2.963266         0.842593
 C        -2.286884         1.464503         0.512878
 H        -3.165376         1.093477         3.513162
 H        -0.010859         1.968965         2.774263
 H        -0.899480         0.353121         2.314610
 H        -0.590680        -0.329987        -0.660251
 H         0.818695         2.635821        -0.284703
 H        -0.639555         2.315178        -1.275719
 H        -0.435268         4.175412         1.359488
 H        -1.188852         4.400835        -0.352764
 H        -3.281706         3.477372         0.930416
 H        -3.000841         0.822722        -0.116864
