19
Iteration:   385charge 0 multiplicity 1
 O        -3.167746         1.763780         2.892875
 C        -2.206694         1.958189         1.894057
 C        -0.645535         1.494378         2.066322
 C        -0.752775         1.273952         0.617992
 O        -0.398209         0.014383         0.106733
 C        -0.098674         2.496218        -0.106478
 C        -1.003104         3.743651         0.359235
 C        -2.336730         2.993219         0.849182
 C        -2.249237         1.512576         0.422381
 H        -2.880906         1.089905         3.528069
 H         0.079020         2.234574         2.345399
 H        -0.641068         0.669235         2.706340
 H         0.361743        -0.278239         0.662485
 H         0.989712         2.593826         0.221138
 H        -0.017277         2.410356        -1.218876
 H        -0.474910         4.270913         1.124784
 H        -1.329540         4.256046        -0.491411
 H        -3.298417         3.476100         0.665727
 H        -2.814556         1.038919        -0.411649
