19
Iteration:  2401charge 0 multiplicity 1
 O        -3.132235         1.853768         2.962073
 C        -2.145010         1.930904         2.057913
 C        -0.677702         1.567958         2.135364
 C        -0.687878         1.331956         0.513311
 O        -0.277065         0.003257         0.037504
 C        -0.315384         2.439107        -0.405957
 C        -1.011610         3.614481         0.324892
 C        -2.314176         3.022551         1.035742
 C        -2.228384         1.475158         0.656761
 H        -3.652025         1.007771         2.783289
 H         0.044263         2.365921         2.353657
 H        -0.330643         0.668053         2.516111
 H         0.280493        -0.007854        -0.726499
 H         0.725410         2.318628        -0.695504
 H        -0.768804         2.215084        -1.410707
 H        -0.310680         4.213225         1.055185
 H        -1.252447         4.353743        -0.483237
 H        -3.275751         3.478558         1.112662
 H        -2.931246         0.969964         0.061580
