19
Iteration:  4987charge 0 multiplicity 1
 O        -3.128008         1.921141         2.993783
 C        -2.145753         1.875799         1.963583
 C        -0.725734         1.438445         2.088783
 C        -0.725997         1.309104         0.491129
 O        -0.182398         0.056325         0.106185
 C        -0.277860         2.550339        -0.235913
 C        -1.052950         3.654094         0.476234
 C        -2.346052         2.950765         0.733429
 C        -2.181854         1.465904         0.529634
 H        -3.607912         1.075937         2.928896
 H         0.090213         2.079417         2.601014
 H        -0.668679         0.451589         2.449782
 H        -0.373640        -0.226045        -0.820334
 H         0.842042         2.566890        -0.078633
 H        -0.541495         2.633652        -1.243772
 H        -0.446903         3.910826         1.352562
 H        -1.150925         4.631411        -0.047257
 H        -3.333430         3.454019         0.746567
 H        -2.944166         0.734014         0.315203
