19
Iteration:   568charge 0 multiplicity 1
 O        -3.087044         1.807045         3.011443
 C        -2.219149         1.897303         1.905338
 C        -0.862782         1.383725         2.040139
 C        -0.727996         1.229295         0.481466
 O        -0.156137         0.029996         0.245316
 C        -0.086324         2.461742        -0.210314
 C        -1.007598         3.747004         0.346776
 C        -2.246052         3.052138         0.929071
 C        -2.351194         1.595377         0.427367
 H        -3.898455         1.464154         2.678052
 H         0.041927         1.757415         2.651365
 H        -1.157880         0.425978         2.329593
 H        -0.014396        -0.211253        -0.698786
 H         0.916556         2.649055         0.035997
 H        -0.246998         2.451781        -1.271405
 H        -0.487871         4.308574         1.122455
 H        -1.381634         4.314781        -0.484766
 H        -3.203834         3.591553         0.975617
 H        -3.234443         1.333368        -0.109117
