19
Iteration:   766
 O        -3.204969         1.827523         2.895875
 C        -2.207164         1.925668         1.976277
 C        -0.756542         1.389690         2.148515
 C        -0.692453         1.260760         0.563485
 O        -0.287732         0.073386         0.010533
 C        -0.196628         2.500164        -0.264679
 C        -0.971682         3.654737         0.414076
 C        -2.236979         2.985457         0.871449
 C        -2.241389         1.472121         0.532728
 H        -3.724932         2.641500         3.151911
 H        -0.018085         2.083822         2.688708
 H        -0.770145         0.456283         2.693323
 H         0.666975        -0.113952         0.115578
 H         0.900068         2.746659        -0.295646
 H        -0.589316         2.374263        -1.343894
 H        -0.345337         4.143176         1.236839
 H        -1.014676         4.485964        -0.278881
 H        -3.202287         3.420555         1.070787
 H        -2.971022         0.954215        -0.085567
