19
Iteration:  3720charge 0 multiplicity 1
 O        -3.230625         1.720349         2.948820
 C        -2.128572         1.935448         1.991756
 C        -0.639803         1.596187         2.125034
 C        -0.686070         1.325159         0.641166
 O        -0.224088         0.017415         0.109965
 C        -0.312466         2.511571        -0.351656
 C        -0.971860         3.667688         0.340964
 C        -2.293459         2.945907         0.826851
 C        -2.243399         1.466611         0.549151
 H        -3.252033         2.318053         3.692412
 H         0.093516         2.297531         2.565211
 H        -0.445816         0.780560         2.703217
 H        -0.463443        -0.086484        -0.847072
 H         0.741921         2.547879        -0.406022
 H        -0.678022         2.183250        -1.347523
 H        -0.503651         4.091694         1.182672
 H        -1.212627         4.519227        -0.277251
 H        -3.307677         3.295105         0.545171
 H        -2.968145         0.737454         0.136698
