19
Iteration:  3112charge 0 multiplicity 1
 O        -3.118629         1.676295         3.100780
 C        -2.219227         1.808953         2.023721
 C        -0.762982         1.517504         2.048465
 C        -0.742822         1.394333         0.554575
 O        -0.236908         0.087883         0.146439
 C        -0.122621         2.468851        -0.237078
 C        -1.003935         3.694991         0.170288
 C        -2.337455         2.974012         0.849471
 C        -2.265585         1.531070         0.492199
 H        -2.841086         2.375064         3.796552
 H        -0.156695         2.316773         2.502380
 H        -0.660754         0.592640         2.610104
 H        -0.735298        -0.155480        -0.665770
 H         0.957206         2.647563        -0.271272
 H        -0.223402         2.102182        -1.232089
 H        -0.427911         4.409308         0.822224
 H        -1.345906         4.258679        -0.708540
 H        -3.220758         3.597528         0.872144
 H        -2.782671         0.822073        -0.128415
