19
Iteration:  3591charge 0 multiplicity 1
 O        -3.149870         1.963742         3.000319
 C        -2.134021         1.791919         2.049456
 C        -0.706385         1.335865         2.130759
 C        -0.701452         1.267664         0.528506
 O        -0.137688         0.042198         0.011502
 C        -0.149913         2.587386        -0.135861
 C        -1.168036         3.648149         0.197816
 C        -2.334846         2.958911         0.875620
 C        -2.281025         1.489897         0.558418
 H        -3.040839         2.948494         3.205363
 H         0.107523         1.755236         2.746921
 H        -0.818178         0.228580         2.292534
 H        -0.688041        -0.035863        -0.765420
 H         0.862157         2.814330         0.271922
 H        -0.149981         2.470017        -1.229400
 H        -0.603335         4.367115         0.890953
 H        -1.589262         4.250262        -0.631838
 H        -3.419253         3.252747         0.999935
 H        -2.926271         0.770901        -0.058535
