19
Iteration:  2058charge 0 multiplicity 1
 O        -3.140206         1.784731         2.886013
 C        -2.116200         1.979623         2.020415
 C        -0.619677         1.442307         2.041091
 C        -0.740584         1.304710         0.498801
 O        -0.199774         0.040444         0.181719
 C        -0.245573         2.518039        -0.317782
 C        -1.064281         3.643139         0.399782
 C        -2.400277         2.973098         0.860813
 C        -2.251850         1.487942         0.575427
 H        -3.060758         2.395832         3.681329
 H         0.288970         2.017966         2.420333
 H        -0.618915         0.536570         2.753226
 H        -0.668514        -0.261997        -0.613230
 H         0.854772         2.506939        -0.316337
 H        -0.675650         2.358914        -1.337685
 H        -0.401188         4.226021         1.063066
 H        -1.307460         4.420241        -0.368447
 H        -3.309869         3.563152         0.932237
 H        -2.978457         0.721323         0.123875
