19
Iteration:  1838
 O        -3.082200         1.805891         2.980689
 C        -2.189102         2.017550         1.986169
 C        -0.674263         1.589606         2.049114
 C        -0.776376         1.208777         0.520292
 O        -0.219165        -0.005054         0.065184
 C        -0.150391         2.523839        -0.217792
 C        -1.035038         3.712329         0.368061
 C        -2.358536         2.965889         0.845899
 C        -2.289438         1.458914         0.547281
 H        -3.246710         0.895466         3.093304
 H         0.042106         2.319517         2.323985
 H        -0.612893         0.788337         2.875421
 H        -1.010615        -0.608111         0.102853
 H         0.925215         2.578426         0.077228
 H        -0.265704         2.510961        -1.310275
 H        -0.525682         3.940840         1.303698
 H        -1.084484         4.651938        -0.236069
 H        -3.296205         3.294008         0.370865
 H        -3.001531         0.974087        -0.159669
