19
Iteration:  4784
 O        -3.122297         1.820511         2.965537
 C        -2.172028         1.954782         1.918613
 C        -0.703122         1.484427         1.956308
 C        -0.812176         1.265375         0.477245
 O        -0.231196        -0.057884         0.178974
 C        -0.104558         2.591717        -0.150757
 C        -1.030508         3.721258         0.384877
 C        -2.394097         3.015892         0.937031
 C        -2.289738         1.464430         0.489144
 H        -3.146602         0.835091         3.269325
 H        -0.026142         2.335836         2.189778
 H        -0.417011         0.421193         2.507966
 H         0.160995        -0.065054        -0.728608
 H         0.972421         2.529370         0.038975
 H        -0.344243         2.501612        -1.261733
 H        -0.590466         4.244485         1.333766
 H        -1.218548         4.401609        -0.473785
 H        -3.259707         3.669801         1.054452
 H        -2.985545         0.828088        -0.023039
