19
Iteration:  4795
 O        -3.121534         1.825906         3.008552
 C        -2.210815         1.837439         1.942574
 C        -0.714538         1.539889         1.984480
 C        -0.695502         1.334182         0.436300
 O        -0.234610        -0.024135         0.224427
 C        -0.183169         2.510771        -0.217386
 C        -1.021714         3.715883         0.445647
 C        -2.319429         2.991497         0.831715
 C        -2.347505         1.504103         0.453560
 H        -2.996468         0.927196         3.431391
 H         0.069192         2.069108         2.560852
 H        -0.674943         0.407314         2.464109
 H         0.008930        -0.106332        -0.739222
 H         0.901716         2.627630        -0.114435
 H        -0.365475         2.622622        -1.328226
 H        -0.471188         4.254080         1.333081
 H        -1.213437         4.567683        -0.248362
 H        -3.253306         3.552713         0.941904
 H        -2.979315         0.922691        -0.182785
