19
Iteration:   757charge 0 multiplicity 1
 O        -3.225207         1.846073         2.923791
 C        -2.149808         1.900002         2.042833
 C        -0.793626         1.444809         2.210779
 C        -0.706834         1.269825         0.499370
 O        -0.301740         0.001204        -0.026311
 C        -0.215289         2.544615        -0.238584
 C        -0.903078         3.705225         0.359840
 C        -2.258277         2.921007         0.904686
 C        -2.197550         1.480016         0.541386
 H        -3.722725         2.698302         2.700273
 H        -0.103986         2.080425         2.832612
 H        -0.835077         0.392466         2.593402
 H         0.678230         0.131578        -0.057034
 H         0.912038         2.612244        -0.341025
 H        -0.537263         2.422165        -1.305567
 H        -0.504521         3.905492         1.369709
 H        -1.351749         4.511826        -0.173131
 H        -3.197019         3.423001         0.701723
 H        -2.797022         0.949930        -0.161006
