19
Iteration:  2242
 O        -3.053913         1.881226         2.989977
 C        -2.093339         1.915555         1.960047
 C        -0.628824         1.522423         2.074813
 C        -0.730383         1.255145         0.494322
 O        -0.349902        -0.053821         0.182700
 C        -0.197472         2.605563        -0.412189
 C        -1.104694         3.679488         0.384230
 C        -2.272841         2.981504         0.948272
 C        -2.366019         1.438580         0.545024
 H        -3.466239         0.956815         3.163696
 H         0.030704         2.223152         2.560784
 H        -0.495930         0.445132         2.418273
 H         0.243489        -0.083241        -0.551598
 H         0.883199         2.785349        -0.258769
 H        -0.348054         2.548693        -1.485931
 H        -0.456120         4.277006         0.965177
 H        -1.511825         4.437873        -0.292232
 H        -3.231971         3.434400         1.165817
 H        -3.045735         0.835723        -0.011416
