19
Iteration:   390
 O        -3.210813         1.764651         2.860567
 C        -2.153230         1.969604         1.912693
 C        -0.632317         1.517343         2.118079
 C        -0.718592         1.250010         0.556458
 O        -0.415626         0.011228         0.099241
 C        -0.135841         2.494242        -0.090620
 C        -0.994588         3.761005         0.371533
 C        -2.327688         2.978332         0.827505
 C        -2.256291         1.477060         0.428182
 H        -2.820405         1.178127         3.524935
 H         0.147754         2.321652         2.279832
 H        -0.570322         0.578050         2.835736
 H         0.400357        -0.246356         0.562211
 H         0.892631         2.641549         0.231901
 H        -0.008228         2.328611        -1.155980
 H        -0.466094         4.322344         1.196381
 H        -1.326194         4.386487        -0.539661
 H        -3.266061         3.560214         0.843189
 H        -2.933744         1.020211        -0.266665
