19
Iteration:  1050
 O        -2.944418         1.962703         3.217179
 C        -2.265722         1.934591         1.895832
 C        -0.848532         1.442957         2.082693
 C        -0.733722         1.225021         0.491824
 O        -0.128922         0.055154        -0.053122
 C        -0.087416         2.500873        -0.134287
 C        -1.058641         3.649302         0.392445
 C        -2.393701         2.919395         0.709447
 C        -2.313440         1.456038         0.450497
 H        -3.908423         2.223020         3.131810
 H        -0.029279         2.015320         2.657925
 H        -1.161870         0.482764         2.458074
 H        -0.293657        -0.834987         0.200801
 H         0.863212         2.601870         0.390136
 H        -0.096589         2.507051        -1.229046
 H        -0.822570         4.133747         1.372979
 H        -1.158562         4.549713        -0.265178
 H        -3.383971         3.381756         0.622351
 H        -2.987109         0.995824        -0.265318
