19
Iteration:   263charge 0 multiplicity 1
 O        -3.059726         1.708351         2.989589
 C        -2.184537         1.958336         1.842908
 C        -0.845025         1.470366         2.069720
 C        -0.717672         1.251657         0.537401
 O        -0.151387        -0.007013         0.193225
 C        -0.089926         2.511304        -0.106044
 C        -1.033497         3.702908         0.292750
 C        -2.353553         2.998379         0.790288
 C        -2.329125         1.545926         0.451958
 H        -3.369274         2.553760         3.447368
 H        -0.240847         2.245452         2.592969
 H        -0.718946         0.591920         2.613443
 H        -0.882670        -0.534683        -0.180795
 H         0.834037         2.642158         0.488693
 H         0.168426         2.488741        -1.202127
 H        -0.633162         4.358139         1.059802
 H        -1.202702         4.337972        -0.520130
 H        -3.363489         3.474173         0.749866
 H        -3.144938         1.220378        -0.159415
