19
Iteration:  3434charge 0 multiplicity 1
 O        -2.967960         1.992241         3.129004
 C        -2.206706         1.803372         1.920340
 C        -0.799575         1.277455         2.122879
 C        -0.715388         1.279249         0.499803
 O        -0.196287         0.020690         0.040404
 C        -0.093071         2.624364        -0.035963
 C        -1.225848         3.747495         0.163294
 C        -2.362979         2.828978         0.818034
 C        -2.272508         1.448147         0.484201
 H        -3.079672         2.983969         3.210515
 H         0.016634         1.859142         2.602463
 H        -0.835216         0.292251         2.548780
 H        -0.077165         0.203305        -0.916641
 H         0.699726         2.888035         0.627877
 H         0.238797         2.587049        -1.055176
 H        -0.786439         4.453837         0.866909
 H        -1.634870         4.118985        -0.812060
 H        -3.294225         3.340974         0.940165
 H        -3.082473         0.826138        -0.025791
