19
Iteration:  3003charge 0 multiplicity 1
 O        -2.937266         1.712773         3.099453
 C        -2.175826         2.049403         1.979659
 C        -0.784495         1.489648         2.033620
 C        -0.788693         1.223679         0.524117
 O        -0.155155         0.040705         0.132198
 C        -0.187985         2.518239        -0.192899
 C        -1.115851         3.664070         0.285457
 C        -2.371071         2.975834         0.778033
 C        -2.286554         1.467009         0.517744
 H        -3.815294         2.023098         2.967346
 H         0.019377         2.100609         2.466229
 H        -0.782700         0.606581         2.652068
 H        -0.193537         0.118953        -0.867495
 H         0.856756         2.715515         0.110099
 H        -0.346648         2.389221        -1.267444
 H        -0.706123         4.347437         1.098577
 H        -1.106125         4.340598        -0.593361
 H        -3.336058         3.574018         0.786727
 H        -3.154747         0.941982         0.204640
