19
Iteration:  1684charge 0 multiplicity 1
 O        -3.205293         1.838658         2.856015
 C        -2.116653         1.974106         1.977393
 C        -0.694867         1.425201         2.092600
 C        -0.766829         1.300463         0.529805
 O        -0.216365         0.010346         0.141384
 C        -0.273895         2.455047        -0.278369
 C        -1.027089         3.742512         0.347227
 C        -2.218364         3.027577         0.894443
 C        -2.263544         1.491490         0.632963
 H        -3.524550         0.872754         2.782718
 H         0.068389         2.064382         2.418704
 H        -0.807904         0.455971         2.689094
 H         0.708699         0.135918        -0.099781
 H         0.818671         2.301865        -0.421266
 H        -0.637645         2.022406        -1.190172
 H        -0.430282         4.296196         1.064105
 H        -1.437181         4.523357        -0.307272
 H        -3.148686         3.547637         0.989325
 H        -3.110000         1.081425         0.128993
