19
Iteration:  1727
 O        -3.094049         2.004979         3.026830
 C        -2.232577         1.933229         1.980255
 C        -0.746752         1.507058         2.081639
 C        -0.684011         1.202005         0.569184
 O        -0.340994         0.001520        -0.054947
 C        -0.018648         2.485668        -0.091955
 C        -1.152588         3.707108         0.368799
 C        -2.391309         2.886828         0.811392
 C        -2.213454         1.410892         0.448710
 H        -2.876961         1.154922         3.571120
 H        -0.057609         2.207426         2.440351
 H        -0.718809         0.575877         2.748481
 H         0.645883        -0.058229        -0.106194
 H         0.990250         2.771830         0.309947
 H         0.026729         2.665359        -1.143104
 H        -0.825875         4.444393         1.122275
 H        -1.292292         4.340418        -0.541536
 H        -3.383775         3.231251         0.593180
 H        -2.864975         0.848194        -0.200930
