19
Iteration:  1590charge 0 multiplicity 1
 O        -3.117775         1.947453         3.028264
 C        -2.090859         2.002986         1.995600
 C        -0.696570         1.284220         2.106426
 C        -0.771978         1.230721         0.549089
 O        -0.337251         0.018276        -0.072508
 C        -0.100988         2.594086        -0.021575
 C        -1.153910         3.713588         0.198213
 C        -2.320641         2.978898         0.788046
 C        -2.209953         1.405537         0.609945
 H        -3.681469         1.260942         2.784530
 H         0.170659         1.860397         2.581674
 H        -0.882724         0.359403         2.555963
 H         0.551280         0.132988         0.327759
 H         0.843800         2.759063         0.474041
 H         0.237741         2.501523        -1.092798
 H        -0.728550         4.677721         0.595951
 H        -1.485993         4.044460        -0.794258
 H        -3.230288         3.540064         0.711435
 H        -2.960034         0.771561         0.217485
