19
Iteration:  4618charge 0 multiplicity 1
 O        -3.184751         1.813053         2.869879
 C        -2.090794         1.968309         2.011602
 C        -0.621675         1.444624         2.022901
 C        -0.740807         1.341851         0.494109
 O        -0.207281         0.022827         0.116382
 C        -0.259460         2.475527        -0.232054
 C        -1.024636         3.607864         0.363139
 C        -2.296309         3.029163         0.950246
 C        -2.389515         1.508408         0.628273
 H        -3.467551         0.923339         2.704396
 H         0.005307         2.247006         2.410944
 H        -0.625435         0.384247         2.285522
 H         0.744897         0.088641        -0.192146
 H         0.764429         2.557230        -0.096461
 H        -0.423100         2.358071        -1.300430
 H        -0.582505         4.370422         1.018530
 H        -1.261424         4.337885        -0.414583
 H        -3.103653         3.759732         1.003075
 H        -3.283486         0.968058         0.310089
