19
Iteration:  2102
 O        -2.899340         1.856866         3.198888
 C        -2.231714         1.891958         1.914119
 C        -0.804262         1.474619         2.114919
 C        -0.780114         1.263322         0.509360
 O        -0.305025         0.042065        -0.001288
 C        -0.036409         2.438793        -0.122554
 C        -1.124361         3.671457         0.237755
 C        -2.354466         2.994068         0.884374
 C        -2.292067         1.464764         0.463316
 H        -3.845081         2.192212         3.132866
 H        -0.134394         2.178196         2.627134
 H        -0.694552         0.422108         2.483056
 H         0.466032         0.226318        -0.534763
 H         0.933114         2.630498         0.313647
 H         0.054178         2.535697        -1.212980
 H        -0.960652         4.641704         0.724791
 H        -1.468957         4.001794        -0.762635
 H        -3.361939         3.393417         0.772471
 H        -2.813584         0.878196        -0.346073
