19
Iteration:  2891charge 0 multiplicity 1
 O        -3.051410         1.928904         3.072358
 C        -2.161873         1.854899         2.022234
 C        -0.786130         1.342929         2.021892
 C        -0.760332         1.241196         0.514996
 O        -0.120161        -0.007904         0.030957
 C        -0.130154         2.598734        -0.196535
 C        -1.191999         3.703411         0.342070
 C        -2.317061         2.935657         0.884196
 C        -2.309657         1.460369         0.486383
 H        -2.998131         2.930755         3.360286
 H        -0.021852         1.992254         2.495617
 H        -0.841988         0.367786         2.485968
 H        -0.434127        -0.119239        -0.902309
 H         0.809944         2.857951         0.303699
 H        -0.009867         2.612241        -1.272170
 H        -0.718767         4.238786         1.203544
 H        -1.458506         4.324254        -0.551585
 H        -3.281377         3.388948         0.888698
 H        -2.988806         0.892343        -0.198775
