19
Iteration:  4910
 O        -3.026137         1.826425         3.036982
 C        -2.169001         1.945840         1.947285
 C        -0.819498         1.381934         2.089273
 C        -0.698682         1.314834         0.526980
 O        -0.262027        -0.019270         0.064436
 C        -0.109614         2.563492        -0.000378
 C        -1.152848         3.737688         0.193942
 C        -2.340523         2.990477         0.854247
 C        -2.280064         1.541255         0.447671
 H        -2.852674         0.897813         3.454461
 H        -0.010334         1.753801         2.842341
 H        -0.846736         0.301908         2.312725
 H         0.040046         0.018266        -0.891986
 H         0.880297         2.803428         0.507370
 H         0.138924         2.569229        -1.039294
 H        -0.750022         4.521447         0.866830
 H        -1.405226         4.141168        -0.805587
 H        -3.309116         3.456215         0.747538
 H        -3.014341         0.798390         0.041932
