19
Iteration:  4257
 O        -3.114563         1.597268         2.922902
 C        -2.167912         1.946461         1.985272
 C        -0.706860         1.532930         2.121059
 C        -0.661633         1.348646         0.594988
 O        -0.405119         0.104411         0.049684
 C        -0.210194         2.517307        -0.262811
 C        -1.039305         3.641824         0.327433
 C        -2.306460         2.980382         0.793614
 C        -2.189235         1.518328         0.562681
 H        -3.347660         2.439724         3.427835
 H         0.210056         1.954712         2.696157
 H        -0.809280         0.575572         2.627609
 H         0.313029        -0.379497         0.560680
 H         0.840305         2.794179        -0.156031
 H        -0.405758         2.390473        -1.346465
 H        -0.489591         4.214134         1.093580
 H        -1.125003         4.429932        -0.395524
 H        -3.224273         3.506945         0.907791
 H        -2.855403         0.886333        -0.087571
