19
Iteration:  1735charge 0 multiplicity 1
 O        -3.015034         2.001722         3.035630
 C        -2.230231         1.992808         1.910929
 C        -0.752491         1.475579         2.091940
 C        -0.797089         1.231822         0.536559
 O        -0.309245        -0.019008        -0.069253
 C        -0.078737         2.573257         0.036594
 C        -1.094740         3.705024         0.378847
 C        -2.403275         2.852208         0.752011
 C        -2.244589         1.350916         0.444154
 H        -2.793098         1.135751         3.515589
 H        -0.046139         2.277915         2.435284
 H        -0.625980         0.532769         2.657576
 H         0.654458         0.097973         0.165413
 H         0.942392         2.766264         0.445245
 H        -0.003200         2.427406        -1.069395
 H        -0.639582         4.464008         1.060795
 H        -1.225244         4.179552        -0.635256
 H        -3.404063         3.235808         0.563367
 H        -3.046983         0.859734        -0.055175
