19
Iteration:  2550charge 0 multiplicity 1
 O        -2.955863         1.892819         3.158938
 C        -2.217338         1.998636         1.989479
 C        -0.787810         1.451984         2.082911
 C        -0.818800         1.264225         0.473568
 O        -0.172084         0.141293        -0.071204
 C        -0.110428         2.409581        -0.183422
 C        -1.096448         3.601646         0.240314
 C        -2.356563         2.962827         0.868614
 C        -2.297047         1.541735         0.531907
 H        -3.086291         0.995857         3.415683
 H         0.014623         2.081495         2.490170
 H        -0.837197         0.398090         2.474308
 H        -0.636039        -0.629528         0.228778
 H         0.892474         2.512179         0.210890
 H        -0.143799         2.297929        -1.283867
 H        -0.600241         4.262005         0.926084
 H        -1.483115         4.229838        -0.569036
 H        -3.353058         3.373939         1.003092
 H        -3.078862         1.055388         0.020557
