19
Iteration:  3894charge 0 multiplicity 1
 O        -3.191255         1.619914         2.922195
 C        -2.215715         1.925486         1.950477
 C        -0.705416         1.678881         2.158388
 C        -0.741629         1.289067         0.510559
 O        -0.276648         0.070414         0.072987
 C        -0.208176         2.496832        -0.291220
 C        -0.902841         3.619323         0.362175
 C        -2.261457         2.987355         0.935267
 C        -2.274761         1.486683         0.440671
 H        -2.836172         2.218376         3.685063
 H        -0.218637         2.595769         2.406003
 H        -0.585140         0.867330         2.759312
 H        -0.188639        -0.501097         0.874255
 H         0.844375         2.479996        -0.308736
 H        -0.594192         2.373522        -1.306204
 H        -0.295550         4.025020         1.165526
 H        -1.206383         4.481842        -0.275532
 H        -3.238198         3.404585         0.852481
 H        -3.058533         1.074158        -0.216471
