19
Iteration:  3869
 O        -3.127536         1.672198         3.003919
 C        -2.195548         1.895929         1.999067
 C        -0.741228         1.434172         2.056622
 C        -0.716724         1.280196         0.504686
 O        -0.187417         0.046932         0.173457
 C        -0.183940         2.545736        -0.238699
 C        -1.005868         3.709437         0.310848
 C        -2.347770         3.080273         0.742373
 C        -2.252755         1.538129         0.523195
 H        -2.902621         2.491752         3.586409
 H        -0.059992         2.028354         2.604649
 H        -0.857799         0.367318         2.465419
 H        -0.984081        -0.552578         0.235701
 H         0.929055         2.744208        -0.152242
 H        -0.430275         2.370437        -1.318890
 H        -0.442773         4.135071         1.201703
 H        -1.175636         4.542508        -0.427702
 H        -3.391477         3.426564         0.700855
 H        -2.894490         1.005775        -0.147647
