19
Iteration:   527
 O        -3.191518         1.837530         2.926985
 C        -2.131529         1.949462         1.981440
 C        -0.696210         1.455508         2.230766
 C        -0.695599         1.251399         0.544930
 O        -0.348024         0.108586        -0.011217
 C        -0.024753         2.484270        -0.044695
 C        -1.045250         3.626313         0.309985
 C        -2.335163         2.946617         0.839312
 C        -2.194629         1.452541         0.489764
 H        -4.055210         2.187638         2.574747
 H        -0.039574         2.230741         2.710311
 H        -0.735598         0.583945         2.878071
 H        -0.536606         0.204338        -0.967765
 H         1.068226         2.466380         0.180154
 H        -0.057929         2.337208        -1.130421
 H        -0.710766         4.378265         1.093970
 H        -1.235152         4.137830        -0.635335
 H        -3.331870         3.428064         0.840510
 H        -2.832129         0.788423        -0.046257
