19
Iteration:  2540charge 0 multiplicity 1
 O        -2.950785         1.945188         3.098924
 C        -2.099894         1.959094         1.994404
 C        -0.796028         1.345900         2.060589
 C        -0.770737         1.205006         0.539631
 O        -0.133405         0.108933        -0.059608
 C        -0.194481         2.490792        -0.139833
 C        -1.143959         3.691385         0.202079
 C        -2.351431         3.030396         0.872537
 C        -2.393762         1.470586         0.577015
 H        -3.069607         1.023964         3.205076
 H         0.029122         1.861040         2.647917
 H        -0.943799         0.332702         2.557018
 H        -0.662758        -0.688357        -0.051938
 H         0.842772         2.601204         0.167930
 H        -0.123062         2.417303        -1.252948
 H        -0.688855         4.384039         0.890234
 H        -1.271668         4.163129        -0.754060
 H        -3.201107         3.715468         0.966069
 H        -3.132320         0.895622         0.081961
