19
Iteration:   456charge 0 multiplicity 1
 O        -3.122186         1.859106         2.940807
 C        -2.304694         1.889824         1.895069
 C        -0.910038         1.279868         2.153772
 C        -0.757722         1.236528         0.538124
 O        -0.024519         0.074346         0.132176
 C        -0.103868         2.476836        -0.162246
 C        -0.980781         3.731380         0.348713
 C        -2.318621         3.067625         0.815944
 C        -2.412948         1.499430         0.510743
 H        -2.755816         2.552116         3.546274
 H        -0.048271         1.878081         2.552133
 H        -1.006000         0.229720         2.623180
 H         0.318446         0.117988        -0.787697
 H         0.951292         2.636064         0.010205
 H        -0.178592         2.238020        -1.244771
 H        -0.389513         4.218181         1.093370
 H        -1.187622         4.285910        -0.594912
 H        -3.286456         3.566776         0.921438
 H        -3.189099         1.037745        -0.121266
