19
Iteration:  1117
 O        -3.248669         1.670919         2.925133
 C        -2.181269         1.955306         2.049528
 C        -0.693397         1.454536         2.076428
 C        -0.686138         1.233340         0.553630
 O        -0.241761         0.066043         0.071731
 C        -0.159169         2.489423        -0.248219
 C        -1.057063         3.725507         0.233693
 C        -2.170622         3.028363         0.873647
 C        -2.261734         1.564068         0.617811
 H        -3.048630         2.209229         3.681214
 H        -0.050843         2.246696         2.644224
 H        -0.774518         0.569379         2.614498
 H        -1.038619        -0.554686         0.073956
 H         0.857737         2.839762        -0.135025
 H        -0.393560         2.251872        -1.295069
 H        -0.436373         4.481922         0.756017
 H        -1.263075         4.287241        -0.663541
 H        -3.170195         3.434691         0.820175
 H        -2.900228         0.907381         0.037706
