19
Iteration:  4019
 O        -3.094376         1.899784         2.983933
 C        -2.121560         1.931230         1.959961
 C        -0.730691         1.228798         2.121980
 C        -0.707120         1.270557         0.586782
 O        -0.239030         0.100843         0.010157
 C        -0.146726         2.528451        -0.048480
 C        -1.166670         3.705457         0.285915
 C        -2.343506         2.924373         0.769383
 C        -2.272265         1.450852         0.535896
 H        -3.448170         2.855552         3.146839
 H         0.064459         1.718998         2.764673
 H        -0.854522         0.111392         2.501428
 H         0.469574         0.310584        -0.661659
 H         0.920496         2.917666         0.174331
 H        -0.340239         2.336018        -1.093558
 H        -0.694607         4.424057         1.015828
 H        -1.227303         4.426441        -0.553899
 H        -3.344595         3.372990         0.729855
 H        -2.929561         0.909975        -0.100071
