19
Iteration:  3975
 O        -3.101104         1.939894         3.146113
 C        -2.293098         1.918979         1.981906
 C        -0.759722         1.342193         2.048330
 C        -0.785625         1.261065         0.545265
 O        -0.202274         0.091495        -0.101275
 C        -0.025385         2.570743         0.011817
 C        -1.084419         3.606511         0.261113
 C        -2.370074         2.862465         0.786232
 C        -2.297605         1.416231         0.500252
 H        -3.198848         2.956909         3.263561
 H         0.133997         1.963676         2.386034
 H        -0.599825         0.310749         2.552059
 H         0.667667         0.307589        -0.520215
 H         0.855519         2.562406         0.729208
 H         0.311664         2.609777        -1.019464
 H        -0.962930         4.490178         0.900071
 H        -1.410484         4.067505        -0.676425
 H        -3.313123         3.430854         0.687383
 H        -2.826754         0.928958        -0.272149
