19
Iteration:  2761
 O        -3.091320         1.699054         3.012460
 C        -2.164176         2.019789         2.052900
 C        -0.606204         1.560326         2.013142
 C        -0.798154         1.273263         0.493658
 O        -0.203290         0.018201        -0.028681
 C        -0.215627         2.453799        -0.218143
 C        -1.053287         3.636468         0.399115
 C        -2.354613         3.007126         0.805726
 C        -2.275358         1.516505         0.573121
 H        -3.204847         2.505065         3.478266
 H         0.207283         2.207743         2.399975
 H        -0.650217         0.666793         2.575185
 H        -0.894214        -0.638001        -0.027493
 H         0.892836         2.549685        -0.129103
 H        -0.474174         2.399293        -1.307575
 H        -0.578370         4.133805         1.259869
 H        -1.134004         4.516972        -0.232724
 H        -3.288608         3.437138         0.954080
 H        -3.127630         1.008424         0.212253
