19
Iteration:  3284charge 0 multiplicity 1
 O        -3.032693         1.835904         3.118208
 C        -2.220204         1.905535         1.975865
 C        -0.733647         1.519307         2.127527
 C        -0.765965         1.280009         0.510407
 O        -0.219433         0.067721         0.008012
 C        -0.084312         2.565268        -0.146479
 C        -1.051009         3.622004         0.180310
 C        -2.284048         2.906339         0.890206
 C        -2.362035         1.450244         0.560701
 H        -3.973691         2.092329         2.896777
 H        -0.093208         2.424071         2.344839
 H        -0.416787         0.681461         2.671670
 H        -0.467919        -0.108771        -0.916367
 H         0.934721         2.560563         0.279420
 H         0.083067         2.135484        -1.159279
 H        -0.781165         4.485358         0.781607
 H        -1.520471         4.074081        -0.692906
 H        -3.196643         3.444452         0.747938
 H        -3.091455         0.644061         0.218059
