19
Iteration:   639
 O        -3.287390         1.961569         2.827993
 C        -2.112506         1.915302         1.975344
 C        -0.653213         1.436243         2.172659
 C        -0.701910         1.243284         0.559584
 O        -0.237368         0.036923        -0.081137
 C        -0.084360         2.479778        -0.072850
 C        -1.053995         3.743675         0.405651
 C        -2.310917         2.896376         0.853382
 C        -2.290355         1.488419         0.514533
 H        -3.094747         1.473437         3.611778
 H         0.061896         2.058976         2.664566
 H        -0.679300         0.386304         2.709868
 H        -0.733562         0.017692        -0.936442
 H         0.958308         2.342819         0.356196
 H        -0.019510         2.257760        -1.137906
 H        -0.561805         4.124136         1.296927
 H        -1.237071         4.426127        -0.470216
 H        -3.181253         3.470426         1.068292
 H        -3.211808         0.913301         0.339278
