19
Iteration:  4644charge 0 multiplicity 1
 O        -3.174456         1.873786         2.967421
 C        -2.173948         1.927015         2.039638
 C        -0.705680         1.472304         2.121780
 C        -0.722060         1.308659         0.509495
 O        -0.234545        -0.023625         0.083806
 C        -0.265069         2.540627        -0.282767
 C        -0.994253         3.666770         0.363859
 C        -2.321242         2.927286         0.902035
 C        -2.236117         1.480519         0.519541
 H        -3.249817         0.938941         3.231682
 H        -0.107029         2.310599         2.482568
 H        -0.755711         0.467741         2.651083
 H         0.442953         0.124364        -0.635395
 H         0.882264         2.677340        -0.286387
 H        -0.539677         2.412884        -1.423867
 H        -0.426834         4.278872         1.213963
 H        -1.161119         4.559829        -0.258405
 H        -3.249442         3.533689         0.803156
 H        -2.856256         1.090080        -0.310487
