19
Iteration:  1868charge 0 multiplicity 1
 O        -3.034340         1.834196         3.051018
 C        -2.228998         1.876933         1.920164
 C        -0.743538         1.472578         1.985965
 C        -0.725278         1.317892         0.497244
 O        -0.293392         0.050313         0.291412
 C        -0.129848         2.526286        -0.301801
 C        -1.069731         3.714654         0.369616
 C        -2.289039         2.932079         0.914208
 C        -2.256012         1.518981         0.346325
 H        -3.098464         0.894889         3.373431
 H        -0.149157         2.241601         2.486931
 H        -0.564305         0.550476         2.607333
 H        -0.967106        -0.207198        -0.371030
 H         0.991006         2.600493        -0.184160
 H        -0.311417         2.339914        -1.361848
 H        -0.517922         4.112312         1.244559
 H        -1.275196         4.636818        -0.248153
 H        -3.274694         3.390705         0.893611
 H        -2.856554         0.857457        -0.329900
