19
Iteration:  1773
 O        -3.064962         2.083125         3.081808
 C        -2.159597         1.930549         1.990708
 C        -0.832803         1.233421         2.070184
 C        -0.727303         1.293007         0.476666
 O        -0.123301         0.047534        -0.015785
 C        -0.116767         2.609150        -0.044872
 C        -1.133745         3.654377         0.203724
 C        -2.372193         2.943814         0.884961
 C        -2.291550         1.466398         0.444176
 H        -3.200780         1.146920         3.451271
 H        -0.005944         1.585140         2.659307
 H        -1.081792         0.167318         2.363941
 H         0.441152        -0.388595         0.604306
 H         0.927480         2.663966         0.302053
 H        -0.088585         2.347887        -1.125621
 H        -0.828616         4.521508         0.778578
 H        -1.676714         4.062742        -0.640640
 H        -3.428324         3.272231         0.775749
 H        -3.013416         0.856186        -0.171881
