19
Iteration:  2897
 O        -3.055169         1.896592         3.055422
 C        -2.203508         1.927125         1.955869
 C        -0.762290         1.334573         1.988192
 C        -0.765046         1.239806         0.462899
 O        -0.058911         0.005584         0.036813
 C        -0.160879         2.552853        -0.150539
 C        -1.163633         3.721965         0.335669
 C        -2.329359         2.960217         0.892681
 C        -2.365074         1.479266         0.576624
 H        -2.791881         2.695394         3.531773
 H        -0.117501         2.077127         2.474217
 H        -0.874654         0.316228         2.457825
 H        -0.462799        -0.311771        -0.817344
 H         0.858191         2.760535         0.221180
 H        -0.049306         2.455350        -1.260099
 H        -0.780116         4.262775         1.195579
 H        -1.243290         4.306082        -0.580316
 H        -3.336512         3.424032         0.986471
 H        -2.954953         0.862409        -0.055500
