19
Iteration:  3354charge 0 multiplicity 1
 O        -3.014333         1.760376         3.083712
 C        -2.211887         1.880804         1.969064
 C        -0.733995         1.515727         2.090773
 C        -0.766907         1.330851         0.476540
 O        -0.172876         0.040451         0.216140
 C        -0.267759         2.425270        -0.313764
 C        -1.046207         3.635865         0.321771
 C        -2.328079         2.991250         0.913633
 C        -2.269095         1.538136         0.451227
 H        -3.940704         2.174521         2.903607
 H        -0.118030         2.333759         2.439495
 H        -0.569426         0.466948         2.563152
 H        -0.051741         0.035368        -0.740029
 H         0.787061         2.754447        -0.348896
 H        -0.513005         2.316959        -1.395715
 H        -0.298867         4.098069         0.998607
 H        -1.216442         4.531589        -0.265834
 H        -3.260796         3.555934         0.652605
 H        -2.909847         0.972698        -0.135721
