19
Iteration:  2323
 O        -2.952363         2.092718         3.132478
 C        -2.094682         1.857709         1.977255
 C        -0.686555         1.301159         1.999051
 C        -0.786175         1.241617         0.450250
 O        -0.359851        -0.016760        -0.026550
 C        -0.055505         2.723302        -0.016658
 C        -1.271583         3.723782         0.240207
 C        -2.383267         2.885111         0.883164
 C        -2.304256         1.385060         0.442912
 H        -2.737720         1.466254         3.919575
 H         0.224866         1.744867         2.429739
 H        -0.736964         0.310958         2.355360
 H         0.330833        -0.322697         0.577325
 H         0.998644         2.743265         0.367800
 H        -0.057143         2.579005        -1.137277
 H        -0.844416         4.602855         0.828049
 H        -1.528320         3.993778        -0.801478
 H        -3.440742         3.140523         0.932899
 H        -2.815921         0.999407        -0.520114
