19
Iteration:   848
 O        -3.140284         1.958030         2.975596
 C        -2.190362         1.947308         1.952751
 C        -0.687405         1.392055         2.147595
 C        -0.764696         1.219470         0.586579
 O        -0.214663         0.108166        -0.037404
 C        -0.049731         2.556833        -0.087236
 C        -1.100306         3.672100         0.257289
 C        -2.232191         2.916273         0.883601
 C        -2.325285         1.454012         0.501956
 H        -3.555858         1.032849         3.050745
 H         0.038596         1.968615         2.686203
 H        -0.895366         0.377831         2.617711
 H        -0.912645        -0.534580        -0.144770
 H         0.921167         2.848015         0.306607
 H         0.069168         2.410442        -1.130162
 H        -0.636919         4.229751         1.034007
 H        -1.500371         4.257138        -0.587557
 H        -3.182784         3.474243         0.735423
 H        -3.038636         0.868514        -0.127711
