19
Iteration:    15charge 0 multiplicity 1
 O        -3.010227         1.759003         3.049496
 C        -2.240963         2.018056         1.884264
 C        -0.842605         1.650452         2.093869
 C        -0.756749         1.260278         0.564626
 O        -0.000872         0.064137         0.108953
 C        -0.148665         2.443853        -0.174020
 C        -1.110935         3.600240         0.282715
 C        -2.373071         2.945338         0.786605
 C        -2.340002         1.409167         0.417442
 H        -3.681849         2.540502         3.048627
 H        -0.197607         2.573535         2.685660
 H        -0.874600         0.711430         2.732539
 H        -0.073563        -0.619785         0.826320
 H         0.881691         2.523858         0.030129
 H        -0.144955         2.228362        -1.180716
 H        -0.641578         4.153158         1.137484
 H        -1.366065         4.424719        -0.398718
 H        -3.341624         3.503309         0.606946
 H        -3.194244         0.734047         0.067943
