19
Iteration:  3253charge 0 multiplicity 1
 O        -2.958743         1.942425         3.112517
 C        -2.122292         1.990301         2.021622
 C        -0.783829         1.237345         2.099505
 C        -0.707012         1.275991         0.568173
 O        -0.186071         0.006678         0.031229
 C        -0.154610         2.569271        -0.096776
 C        -1.216552         3.645275         0.145196
 C        -2.372043         2.943007         0.830305
 C        -2.271032         1.526507         0.461945
 H        -3.839407         2.320772         3.035698
 H        -0.023712         1.757322         2.769091
 H        -1.023712         0.266989         2.507293
 H         0.339303         0.165092        -0.778321
 H         0.858944         2.924399         0.234207
 H         0.011354         2.269221        -1.186947
 H        -1.031632         4.407807         0.894326
 H        -1.611001         4.178928        -0.701617
 H        -3.335250         3.393969         0.785234
 H        -3.068640         0.753698         0.151638
