19
Iteration:  2305charge 0 multiplicity 1
 O        -2.946982         2.029607         3.090681
 C        -2.109412         2.003682         2.001976
 C        -0.712140         1.322134         2.009944
 C        -0.734570         1.232679         0.497048
 O        -0.309833         0.029449        -0.137266
 C        -0.165395         2.544058        -0.029916
 C        -1.249242         3.672538         0.209932
 C        -2.374085         2.905412         0.821252
 C        -2.290004         1.455678         0.575605
 H        -2.822365         1.091028         3.471611
 H         0.052273         1.862867         2.649400
 H        -0.809217         0.295858         2.486546
 H         0.398574        -0.305000         0.416804
 H         0.655576         2.991325         0.582996
 H         0.332150         2.636768        -1.003731
 H        -0.810029         4.422104         0.916792
 H        -1.497116         4.136678        -0.780424
 H        -3.297946         3.439034         0.885620
 H        -3.058689         0.736082         0.440431
