19
Iteration:  1940charge 0 multiplicity 1
 O        -3.053452         2.104327         3.106701
 C        -2.164934         1.854496         2.008362
 C        -0.806274         1.333327         2.133271
 C        -0.692027         1.273297         0.567253
 O        -0.304343         0.114946        -0.106323
 C        -0.058481         2.578802        -0.065861
 C        -1.124741         3.685539         0.201815
 C        -2.320299         2.826407         0.822072
 C        -2.301020         1.346190         0.505094
 H        -3.650335         1.285314         3.191485
 H         0.045292         1.911615         2.489192
 H        -0.687088         0.392797         2.573278
 H         0.653103         0.215816        -0.192657
 H         0.963587         2.733332         0.229264
 H        -0.042088         2.323628        -1.145472
 H        -0.669500         4.450841         0.852117
 H        -1.535947         4.233604        -0.608187
 H        -3.275500         3.353876         0.891847
 H        -3.046253         0.700237         0.012965
