19
Iteration:   949
 O        -3.136562         1.715311         2.931066
 C        -2.214747         1.977477         1.907780
 C        -0.689278         1.582487         2.068739
 C        -0.787831         1.271214         0.511956
 O        -0.395971        -0.066106         0.101078
 C        -0.062633         2.506560        -0.161137
 C        -1.014931         3.736990         0.326659
 C        -2.304643         3.000175         0.859914
 C        -2.275592         1.464874         0.542761
 H        -2.729391         1.646812         3.769533
 H         0.150930         2.233439         2.380432
 H        -0.783984         0.628204         2.609540
 H         0.594646         0.059913         0.068099
 H         0.990512         2.573399         0.032341
 H        -0.028335         2.433713        -1.232315
 H        -0.494796         4.381259         1.052015
 H        -1.319935         4.489264        -0.454178
 H        -3.179079         3.638734         0.867678
 H        -3.079178         0.918436         0.070793
