19
Iteration:  1871charge 0 multiplicity 1
 O        -3.031427         1.837177         3.025496
 C        -2.233473         1.868321         1.941334
 C        -0.729758         1.466901         2.022739
 C        -0.750930         1.328165         0.483817
 O        -0.295552         0.055712         0.288585
 C        -0.136309         2.529317        -0.300520
 C        -1.055547         3.711650         0.358450
 C        -2.290794         2.941097         0.919931
 C        -2.259348         1.514371         0.361402
 H        -3.101659         0.916075         3.428335
 H        -0.066765         2.191544         2.432387
 H        -0.584133         0.478906         2.572650
 H        -0.836615        -0.269003        -0.434678
 H         0.948014         2.709924        -0.174429
 H        -0.281806         2.290942        -1.361734
 H        -0.540128         4.122285         1.226960
 H        -1.233925         4.588461        -0.289085
 H        -3.321711         3.318867         0.857717
 H        -2.853604         0.931445        -0.357886
