19
Iteration:  3756charge 0 multiplicity 1
 O        -3.055422         1.804411         3.043258
 C        -2.192062         1.933756         1.970121
 C        -0.727996         1.438940         1.990659
 C        -0.770346         1.257844         0.508886
 O        -0.095781         0.062380         0.113605
 C        -0.149949         2.532148        -0.119295
 C        -1.098374         3.710178         0.271018
 C        -2.352265         2.947535         0.882209
 C        -2.366216         1.457067         0.473599
 H        -3.077494         2.660729         3.438261
 H        -0.003415         2.113651         2.334887
 H        -0.685640         0.356604         2.314345
 H        -0.819581        -0.579060        -0.000071
 H         0.898854         2.697608         0.292933
 H        -0.093532         2.462258        -1.228372
 H        -0.488658         4.461374         0.822893
 H        -1.547919         4.187629        -0.602402
 H        -3.280494         3.407839         0.720972
 H        -3.168886         0.906425         0.037807
