19
Iteration:   394
 O        -3.240545         1.771789         2.829899
 C        -2.116517         1.962373         1.936253
 C        -0.646411         1.535226         2.166127
 C        -0.706547         1.249749         0.495938
 O        -0.418338        -0.008938         0.086639
 C        -0.149342         2.509884        -0.076893
 C        -1.005024         3.744513         0.367239
 C        -2.297908         2.973843         0.806138
 C        -2.250582         1.470430         0.459531
 H        -2.793566         1.256358         3.529717
 H         0.102691         2.308290         2.345983
 H        -0.481853         0.699785         2.748318
 H         0.468646        -0.277825         0.431458
 H         0.861428         2.697966         0.276420
 H        -0.111086         2.284885        -1.167753
 H        -0.543639         4.384349         1.176967
 H        -1.190604         4.484039        -0.422038
 H        -3.210992         3.550896         1.000042
 H        -3.087025         0.927716        -0.083872
