19
Iteration:   439charge 0 multiplicity 1
 O        -3.346400         1.887633         2.979355
 C        -2.209650         1.870294         1.978679
 C        -0.761275         1.358560         2.115255
 C        -0.715324         1.262313         0.588620
 O        -0.153461         0.046954         0.063299
 C        -0.192816         2.484353        -0.124550
 C        -0.974689         3.678530         0.287833
 C        -2.225004         2.958764         0.784990
 C        -2.243262         1.547372         0.478451
 H        -2.932123         2.130803         3.864006
 H        -0.147208         2.036217         2.721097
 H        -0.702706         0.384071         2.464566
 H         0.371978         0.373553        -0.695339
 H         0.924181         2.507993        -0.087406
 H        -0.471707         2.429664        -1.195620
 H        -0.530647         4.241249         1.197198
 H        -1.142409         4.408025        -0.487167
 H        -3.148449         3.537726         0.716537
 H        -2.947427         0.947146        -0.127629
