19
Iteration:  2518charge 0 multiplicity 1
 O        -3.052869         2.154475         2.987428
 C        -2.050201         1.929795         2.038776
 C        -0.664643         1.135283         2.054997
 C        -0.765420         1.188928         0.541727
 O        -0.112776         0.042045        -0.065864
 C        -0.197844         2.559378        -0.089064
 C        -1.296626         3.770346         0.205223
 C        -2.331155         2.927645         0.914436
 C        -2.269037         1.507964         0.606095
 H        -3.326061         1.207094         3.287050
 H         0.355253         1.472404         2.455953
 H        -0.846111         0.027773         2.294337
 H        -0.904886        -0.519983        -0.297200
 H         0.824941         2.721874         0.237902
 H        -0.137036         2.579565        -1.199130
 H        -0.821113         4.485151         0.826636
 H        -1.687656         4.187703        -0.714978
 H        -3.310192         3.335196         1.111975
 H        -3.165157         1.020254         0.348537
