19
Iteration:  1428
 O        -3.109696         1.891901         3.010842
 C        -2.181433         1.934656         1.963010
 C        -0.715230         1.389274         2.168893
 C        -0.674229         1.303655         0.563157
 O        -0.343499        -0.069928        -0.033378
 C        -0.099106         2.549055        -0.078883
 C        -1.158605         3.738002         0.174459
 C        -2.310925         2.986760         0.862178
 C        -2.241012         1.570565         0.512043
 H        -3.335275         0.987368         3.253048
 H         0.125069         1.973312         2.638871
 H        -0.682654         0.363583         2.550706
 H         0.462752        -0.364310         0.385135
 H         0.986672         2.602493         0.142672
 H        -0.150644         2.458193        -1.173436
 H        -0.671434         4.386617         0.908680
 H        -1.177744         4.277792        -0.773165
 H        -3.324648         3.391115         0.884051
 H        -3.002035         0.992634        -0.073819
