19
Iteration:  1287
 O        -3.084066         1.814634         3.001453
 C        -2.184289         1.959157         1.909742
 C        -0.737247         1.500939         2.063646
 C        -0.668425         1.294032         0.520656
 O        -0.378308        -0.043676         0.179271
 C        -0.079951         2.479002        -0.223051
 C        -1.052217         3.756614         0.350338
 C        -2.361551         2.952038         0.818500
 C        -2.191511         1.566665         0.482239
 H        -2.894409         0.920049         3.158746
 H        -0.108426         2.288866         2.471565
 H        -0.579372         0.427697         2.522403
 H        -1.029608        -0.415915        -0.405476
 H         0.906247         2.850767         0.188731
 H        -0.063829         2.585692        -1.314256
 H        -0.662626         4.042670         1.320312
 H        -1.085406         4.626920        -0.324210
 H        -3.433036         3.135128         0.809134
 H        -2.929113         0.982000        -0.017564
