19
Iteration:  4247charge 0 multiplicity 1
 O        -3.089648         1.624262         2.948340
 C        -2.081910         2.042206         1.940206
 C        -0.717609         1.474064         2.182420
 C        -0.636467         1.304321         0.544635
 O        -0.364727         0.059443        -0.008958
 C        -0.140885         2.492360        -0.205043
 C        -1.083423         3.669226         0.372354
 C        -2.352309         2.989241         0.778220
 C        -2.266701         1.536641         0.538191
 H        -3.583244         2.403231         3.225995
 H        -0.051388         2.273803         2.622932
 H        -0.815877         0.522384         2.725880
 H         0.421825        -0.289986         0.501170
 H         0.944362         2.734522        -0.311674
 H        -0.563210         2.345404        -1.197827
 H        -0.737383         4.121876         1.349400
 H        -1.242908         4.409900        -0.400766
 H        -3.278484         3.516235         0.768090
 H        -3.051263         0.796141         0.229344
