19
Iteration:  2726
 O        -3.006354         1.880124         3.189591
 C        -2.153067         1.879501         1.998536
 C        -0.799745         1.408747         2.071615
 C        -0.817288         1.281282         0.545707
 O        -0.149192         0.086979        -0.072486
 C        -0.146372         2.474046        -0.199358
 C        -1.100488         3.685155         0.249549
 C        -2.269299         2.959594         0.934944
 C        -2.309877         1.464779         0.521907
 H        -3.857664         2.167677         2.943768
 H        -0.120262         2.047089         2.569836
 H        -0.735542         0.391962         2.468070
 H        -0.759545        -0.315579        -0.680771
 H         0.875067         2.552951         0.180013
 H        -0.100847         2.380148        -1.303667
 H        -0.606609         4.381252         0.947157
 H        -1.357129         4.162875        -0.709913
 H        -3.237148         3.546303         0.939679
 H        -3.025869         1.250045        -0.328053
