19
Iteration:  3113charge 0 multiplicity 1
 O        -3.120476         1.671255         3.102408
 C        -2.209369         1.809473         2.019855
 C        -0.766903         1.514377         2.048942
 C        -0.753228         1.393986         0.559169
 O        -0.230039         0.081126         0.154343
 C        -0.120805         2.468173        -0.244279
 C        -1.001169         3.700186         0.164576
 C        -2.336628         2.978972         0.850411
 C        -2.265338         1.538131         0.487913
 H        -2.871948         2.373223         3.829743
 H        -0.182048         2.306986         2.479617
 H        -0.621455         0.559471         2.591709
 H        -0.722567        -0.163718        -0.636480
 H         0.946977         2.672491        -0.275249
 H        -0.252505         2.097392        -1.228514
 H        -0.454925         4.428919         0.824731
 H        -1.354513         4.273771        -0.708798
 H        -3.187079         3.604969         0.908628
 H        -2.831074         0.838227        -0.159969
