19
Iteration:  4115
 O        -3.233119         1.710614         3.010237
 C        -2.233788         1.863620         1.943721
 C        -0.716553         1.449916         2.122110
 C        -0.661265         1.333837         0.508403
 O        -0.269122         0.002717         0.149541
 C        -0.169677         2.559574        -0.238267
 C        -1.046880         3.726144         0.308519
 C        -2.257294         3.006539         0.916899
 C        -2.148200         1.495864         0.425147
 H        -3.073470         2.328549         3.760808
 H        -0.065699         2.206980         2.442555
 H        -0.372591         0.540978         2.574573
 H        -0.863089        -0.315510        -0.588309
 H         0.934084         2.697497        -0.113860
 H        -0.369109         2.382491        -1.293919
 H        -0.625499         4.481854         1.018883
 H        -1.329751         4.474631        -0.460705
 H        -3.233798         3.485933         0.926248
 H        -2.742776         0.944511        -0.292533
