19
Iteration:  2030charge 0 multiplicity 1
 O        -3.237155         1.820664         2.963261
 C        -2.220147         1.858157         2.014547
 C        -0.693192         1.537404         2.217864
 C        -0.728497         1.311197         0.474556
 O        -0.143052         0.040942         0.023150
 C        -0.290954         2.474343        -0.381519
 C        -1.000678         3.724270         0.306199
 C        -2.246296         2.975222         0.904300
 C        -2.208972         1.449500         0.611278
 H        -2.902111         1.741713         3.922580
 H        -0.067259         2.300611         2.800179
 H        -0.459955         0.634271         2.724094
 H        -0.851629        -0.583907        -0.051221
 H         0.805155         2.386450        -0.420418
 H        -0.692899         2.314805        -1.407411
 H        -0.235088         4.304052         0.830367
 H        -1.320256         4.522245        -0.370550
 H        -3.187242         3.520852         0.842499
 H        -2.919552         0.989196        -0.059307
