19
Iteration:  1577charge 0 multiplicity 1
 O        -3.125970         1.969824         3.045707
 C        -2.174919         1.939220         2.034444
 C        -0.732364         1.268502         2.129295
 C        -0.749673         1.270199         0.578713
 O        -0.264357         0.161460        -0.074896
 C        -0.024596         2.483856        -0.027752
 C        -1.121645         3.643727         0.075381
 C        -2.288633         2.965801         0.851106
 C        -2.339171         1.526394         0.578195
 H        -3.523449         1.019141         3.111278
 H         0.085168         1.848087         2.632209
 H        -0.651016         0.227257         2.421531
 H         0.668160        -0.067721        -0.067325
 H         0.910405         2.718048         0.482494
 H         0.103287         2.230782        -1.104710
 H        -0.906666         4.553876         0.638204
 H        -1.463423         3.872207        -0.919651
 H        -3.314216         3.315957         0.928230
 H        -3.074823         0.901170         0.076352
