19
Iteration:  2768charge 0 multiplicity 1
 O        -3.079612         1.722049         2.965461
 C        -2.176945         1.994465         1.962934
 C        -0.600301         1.530334         2.039522
 C        -0.721390         1.233739         0.460567
 O        -0.266002         0.022219         0.020520
 C        -0.266383         2.515769        -0.211987
 C        -1.065904         3.663444         0.379302
 C        -2.341177         2.991075         0.860791
 C        -2.222131         1.534251         0.597502
 H        -3.007387         2.390937         3.691716
 H         0.266133         2.080369         2.373156
 H        -0.638240         0.588071         2.638834
 H        -0.926865        -0.643353         0.274593
 H         0.800568         2.670415        -0.212688
 H        -0.563438         2.291659        -1.239377
 H        -0.507447         3.995823         1.289218
 H        -1.268748         4.627247        -0.169839
 H        -3.418941         3.369056         0.844101
 H        -3.050100         1.037937         0.026158
