19
Iteration:  2779charge 0 multiplicity 1
 O        -3.082169         1.761144         2.928040
 C        -2.070532         1.938219         1.966872
 C        -0.667557         1.451733         2.072918
 C        -0.677998         1.315829         0.566208
 O        -0.339319        -0.004478         0.050608
 C        -0.280358         2.577288        -0.326975
 C        -1.080492         3.717946         0.416814
 C        -2.318929         3.000349         0.921682
 C        -2.241100         1.445885         0.516625
 H        -2.688946         2.082518         3.712425
 H         0.038725         2.170223         2.464234
 H        -0.586739         0.458674         2.565624
 H        -0.777700        -0.589411         0.665107
 H         0.770380         2.825430        -0.292742
 H        -0.588146         2.503984        -1.368965
 H        -0.455915         4.157905         1.240695
 H        -1.266072         4.467576        -0.396128
 H        -3.287463         3.468975         0.613624
 H        -2.950591         0.854126        -0.113949
