19
Iteration:  1923charge 0 multiplicity 1
 O        -3.138264         2.031730         2.999161
 C        -2.168231         1.997987         2.023416
 C        -0.658508         1.379739         2.161078
 C        -0.742448         1.203291         0.538543
 O        -0.190648         0.084846        -0.151725
 C        -0.201471         2.456660        -0.097862
 C        -1.118987         3.587926         0.254569
 C        -2.296677         2.943441         0.842036
 C        -2.299622         1.462972         0.650938
 H        -3.392540         1.067387         3.264475
 H        -0.049246         2.094372         2.776724
 H        -0.872553         0.336367         2.601173
 H         0.585126         0.437099        -0.590866
 H         0.857594         2.568001         0.340664
 H        -0.147623         2.383542        -1.189809
 H        -0.731201         4.357219         0.985295
 H        -1.373602         4.028900        -0.771016
 H        -3.276724         3.415747         0.857340
 H        -3.085956         0.946328         0.055845
