19
Iteration:  2010
 O        -3.214577         1.796986         3.035923
 C        -2.166740         2.010816         2.019143
 C        -0.735465         1.511204         2.044623
 C        -0.732405         1.262410         0.565705
 O        -0.193081         0.126887         0.000183
 C        -0.143305         2.488364        -0.276587
 C        -1.031528         3.559309         0.258954
 C        -2.296014         2.940379         0.902785
 C        -2.285069         1.513487         0.509290
 H        -2.672991         1.443166         3.793797
 H        -0.038586         2.205231         2.540542
 H        -0.520710         0.624827         2.635457
 H        -0.405236        -0.623018         0.590011
 H         0.951029         2.766064        -0.311804
 H        -0.466146         2.134179        -1.248922
 H        -0.560942         4.201842         1.034265
 H        -1.319561         4.381252        -0.453557
 H        -3.245983         3.486774         0.885385
 H        -3.094644         1.047347         0.026225
