19
Iteration:  1498charge 0 multiplicity 1
 O        -3.105458         1.953552         2.972965
 C        -2.187946         1.897875         1.955322
 C        -0.736984         1.612196         2.058495
 C        -0.742961         1.238532         0.530222
 O        -0.311692        -0.001992         0.065916
 C        -0.177345         2.493815        -0.202447
 C        -0.981911         3.659205         0.504011
 C        -2.320311         2.904005         0.814467
 C        -2.229341         1.410990         0.459108
 H        -3.215923         1.057786         3.457529
 H        -0.172625         2.351707         2.594360
 H        -0.665143         0.562593         2.565525
 H         0.430941         0.088168        -0.520049
 H         0.900470         2.804514        -0.285532
 H        -0.463755         2.387681        -1.256711
 H        -0.552681         4.145028         1.371413
 H        -1.206735         4.467915        -0.194844
 H        -3.387859         3.200420         0.723830
 H        -3.053349         0.988757        -0.143375
