19
Iteration:    69charge 0 multiplicity 1
 O        -3.215104         1.950881         2.821207
 C        -2.158873         1.916975         1.968307
 C        -0.696560         1.475978         2.173851
 C        -0.653645         1.297170         0.581511
 O        -0.117714         0.038141         0.070030
 C        -0.189586         2.541560        -0.247887
 C        -1.158398         3.594982         0.250238
 C        -2.377765         2.961787         0.881423
 C        -2.190434         1.435820         0.617849
 H        -2.906419         1.398152         3.612612
 H        -0.074159         2.195191         2.655025
 H        -0.650605         0.483482         2.646089
 H        -0.524811        -0.606654         0.682191
 H         0.833722         2.791638        -0.096324
 H        -0.356290         2.336117        -1.270990
 H        -0.640108         4.289187         0.954260
 H        -1.509015         4.209680        -0.593257
 H        -3.413214         3.433973         0.808323
 H        -2.906926         0.837963        -0.006603
