19
Iteration:  3744
 O        -3.121743         1.770807         3.054115
 C        -2.207122         1.882880         1.932041
 C        -0.771899         1.547464         2.042214
 C        -0.731804         1.315357         0.452913
 O        -0.136111         0.063990         0.116273
 C        -0.122692         2.510670        -0.277433
 C        -1.086479         3.621480         0.309678
 C        -2.302867         3.002701         0.894731
 C        -2.299652         1.422349         0.579080
 H        -3.114459         2.665110         3.572952
 H        -0.115345         2.172879         2.584832
 H        -0.692631         0.636167         2.660536
 H        -0.683838        -0.585434        -0.396901
 H         0.955551         2.508508         0.019588
 H        -0.147217         2.386546        -1.391042
 H        -0.848056         4.335987         1.106541
 H        -1.320749         4.244177        -0.544965
 H        -3.213716         3.495149         0.919151
 H        -2.998435         1.020786        -0.090141
