19
Iteration:  2416charge 0 multiplicity 1
 O        -3.142036         1.839412         3.015722
 C        -2.119545         1.816558         2.007901
 C        -0.599223         1.520707         2.071961
 C        -0.733165         1.286508         0.497247
 O        -0.336119        -0.004573         0.227432
 C        -0.328901         2.509846        -0.412743
 C        -1.044334         3.709070         0.299993
 C        -2.145423         2.938147         0.976704
 C        -2.245670         1.551861         0.503456
 H        -3.572906         1.007457         3.048086
 H        -0.051530         2.325092         2.590104
 H        -0.352186         0.592033         2.707761
 H        -0.031150         0.093617        -0.692037
 H         0.722069         2.874456        -0.602008
 H        -0.851385         2.334788        -1.394213
 H        -0.391629         4.283714         0.988520
 H        -1.609655         4.410954        -0.343554
 H        -3.127456         3.489405         0.963716
 H        -3.065472         1.112613        -0.115458
