19
Iteration:  1202charge 0 multiplicity 1
 O        -3.090115         2.116083         2.977022
 C        -2.193069         1.870119         1.952442
 C        -0.700948         1.290144         2.184573
 C        -0.782318         1.217457         0.585877
 O        -0.160507         0.163454        -0.102613
 C        -0.237552         2.499185        -0.128398
 C        -1.027066         3.671991         0.303243
 C        -2.308735         2.947367         0.829683
 C        -2.306495         1.433671         0.547109
 H        -3.706449         1.303765         3.033559
 H         0.059263         1.631805         2.829213
 H        -0.787634         0.193979         2.385887
 H         0.046888        -0.530261         0.543991
 H         0.851091         2.665758         0.035388
 H        -0.395315         2.311982        -1.196083
 H        -0.679836         4.150056         1.228394
 H        -1.188383         4.448829        -0.491734
 H        -3.327739         3.293187         0.871576
 H        -2.764355         0.795534        -0.168469
