19
Iteration:  4103charge 0 multiplicity 1
 O        -3.187809         1.651493         2.910485
 C        -2.172578         1.906269         1.994415
 C        -0.736510         1.514151         2.101798
 C        -0.672560         1.330477         0.578300
 O        -0.259431        -0.036335         0.174355
 C        -0.150558         2.573963        -0.306506
 C        -1.029556         3.733025         0.343993
 C        -2.296309         2.988228         0.831022
 C        -2.234851         1.578854         0.526713
 H        -2.803694         1.982219         3.699293
 H        -0.162332         2.150616         2.743050
 H        -0.684078         0.509123         2.397769
 H        -0.890173        -0.261446        -0.505594
 H         0.871945         2.906155        -0.243470
 H        -0.370682         2.358312        -1.381105
 H        -0.377727         4.009532         1.167608
 H        -1.292352         4.501044        -0.411584
 H        -3.311588         3.437077         0.729425
 H        -2.887847         0.935857        -0.023587
