19
Iteration:  2829charge 0 multiplicity 1
 O        -3.087589         1.826818         3.086784
 C        -2.141464         2.019925         2.029975
 C        -0.749067         1.517088         2.019949
 C        -0.766490         1.214180         0.475218
 O        -0.235173         0.036406        -0.099015
 C        -0.168364         2.439856        -0.120352
 C        -1.062676         3.653162         0.293046
 C        -2.335358         3.025341         0.910515
 C        -2.330683         1.508797         0.592441
 H        -3.032196         0.816577         2.986260
 H         0.144674         2.120518         2.307681
 H        -0.814331         0.540152         2.491192
 H         0.651893         0.066688         0.328648
 H         0.934257         2.436794         0.098901
 H        -0.239577         2.411388        -1.233105
 H        -0.620176         4.440420         0.922837
 H        -1.370489         4.152049        -0.644114
 H        -3.272356         3.623957         0.777786
 H        -3.153887         0.921039         0.114861
