19
Iteration:  4124charge 0 multiplicity 1
 O        -3.224998         1.751814         2.998575
 C        -2.198769         1.812077         1.965431
 C        -0.671145         1.440285         2.077191
 C        -0.705984         1.294362         0.492310
 O        -0.246407         0.066903         0.123200
 C        -0.113536         2.569212        -0.154493
 C        -1.050173         3.724609         0.318200
 C        -2.279910         2.923325         0.926387
 C        -2.219691         1.485802         0.452030
 H        -3.064871         2.619998         3.442955
 H        -0.029039         2.288499         2.422480
 H        -0.716754         0.660031         2.732737
 H        -0.743113        -0.296875        -0.659399
 H         0.927252         2.551981        -0.044276
 H        -0.368114         2.574437        -1.259683
 H        -0.474775         4.446686         0.843097
 H        -1.536986         4.147431        -0.595880
 H        -3.201644         3.549245         0.883085
 H        -2.956970         1.227951        -0.266819
