19
Iteration:  3098
 O        -3.089205         1.754699         3.051373
 C        -2.225355         1.941895         1.930522
 C        -0.718595         1.562128         2.160659
 C        -0.690158         1.295365         0.550704
 O        -0.299943         0.098933         0.028744
 C        -0.115567         2.514264        -0.213267
 C        -1.070899         3.599585         0.263941
 C        -2.341724         2.939071         0.811625
 C        -2.233083         1.409689         0.585504
 H        -2.773878         2.372082         3.729964
 H         0.053991         2.282693         2.607122
 H        -0.577868         0.581151         2.590911
 H        -0.682141         0.051934        -0.846424
 H         0.873866         2.640270         0.255471
 H        -0.197339         2.475452        -1.334595
 H        -0.623195         4.274431         1.015272
 H        -1.338305         4.264418        -0.568846
 H        -3.381530         3.282861         0.513296
 H        -2.963340         0.842996         0.046841
