19
Iteration:  3598charge 0 multiplicity 1
 O        -3.139555         2.015264         2.942312
 C        -2.106216         1.879526         2.033149
 C        -0.670117         1.231269         2.075869
 C        -0.689206         1.297945         0.529389
 O        -0.152887         0.047840         0.005014
 C        -0.160729         2.559987        -0.102590
 C        -1.207600         3.686925         0.236893
 C        -2.357733         2.904171         0.915926
 C        -2.266582         1.419975         0.579559
 H        -3.135497         2.910805         3.248718
 H         0.037667         1.863966         2.663078
 H        -0.843358         0.269171         2.472589
 H        -0.644013        -0.215064        -0.793083
 H         0.697798         2.860974         0.462314
 H        -0.053397         2.621204        -1.277325
 H        -0.696288         4.390280         0.862479
 H        -1.580559         4.188290        -0.673083
 H        -3.329398         3.440951         1.028290
 H        -2.849391         0.775382        -0.004233
