19
Iteration:  1603charge 0 multiplicity 1
 O        -3.044443         1.938726         2.973204
 C        -2.112451         2.020958         1.978626
 C        -0.718121         1.417999         2.101500
 C        -0.654744         1.250101         0.529543
 O        -0.337778        -0.076842        -0.038774
 C        -0.119688         2.610969        -0.018206
 C        -1.164655         3.712555         0.211813
 C        -2.331019         2.920185         0.844627
 C        -2.283447         1.481607         0.566647
 H        -3.822517         1.348139         2.640266
 H         0.163222         1.835491         2.651274
 H        -0.865671         0.420009         2.546257
 H         0.512028        -0.573590         0.029816
 H         0.754377         2.904467         0.582591
 H         0.068371         2.499710        -1.092386
 H        -0.859721         4.332966         1.099859
 H        -1.434973         4.304326        -0.705174
 H        -3.371442         3.267446         0.952036
 H        -2.997486         0.782593         0.129151
