19
Iteration:  3452
 O        -3.051078         1.906210         3.079397
 C        -2.089240         2.051231         1.970712
 C        -0.750646         1.331764         1.983446
 C        -0.754795         1.222074         0.500011
 O        -0.062546         0.041777         0.039682
 C        -0.102954         2.572311         0.000625
 C        -1.224689         3.579162         0.226276
 C        -2.409429         2.948721         0.865476
 C        -2.381179         1.464261         0.520839
 H        -3.216020         2.806408         3.471215
 H         0.123981         1.865233         2.405781
 H        -0.909264         0.232525         2.338173
 H        -0.262048        -0.094362        -0.916871
 H         0.870092         2.565653         0.620234
 H         0.066163         2.555453        -1.157352
 H        -0.829457         4.432063         0.807596
 H        -1.497669         4.025531        -0.718970
 H        -3.426097         3.428188         0.785574
 H        -3.118927         0.855761         0.020948
