19
Iteration:  4194charge 0 multiplicity 1
 O        -2.992031         1.973257         3.142487
 C        -2.231065         1.783600         1.939260
 C        -0.846350         1.339467         2.129003
 C        -0.725241         1.284069         0.550808
 O        -0.228323         0.090591        -0.022128
 C        -0.094037         2.561743        -0.134557
 C        -1.065044         3.661778         0.304828
 C        -2.356670         2.882672         0.897101
 C        -2.306643         1.473581         0.358869
 H        -3.744389         2.511249         2.899706
 H        -0.096733         1.879308         2.624787
 H        -1.030873         0.249788         2.434092
 H         0.617052         0.424143        -0.465730
 H         0.899029         2.920510         0.462516
 H         0.013296         2.521035        -1.187564
 H        -0.621230         4.394347         1.102875
 H        -1.402727         4.091888        -0.648102
 H        -3.327777         3.321480         0.962270
 H        -2.857961         0.695668        -0.285830
