19
Iteration:  1618charge 0 multiplicity 1
 O        -3.006586         1.917715         3.010200
 C        -2.141561         1.897742         1.910181
 C        -0.699078         1.479656         2.101390
 C        -0.675192         1.267454         0.545789
 O        -0.403937        -0.042026         0.025368
 C        -0.030344         2.516219        -0.101135
 C        -1.190741         3.688478         0.389482
 C        -2.416788         2.951944         0.799349
 C        -2.230770         1.484795         0.449929
 H        -3.802005         1.444000         2.768603
 H        -0.096520         2.268415         2.489125
 H        -0.569634         0.443492         2.688949
 H         0.553441        -0.093097         0.292603
 H         1.028482         2.785359         0.187314
 H        -0.002195         2.448251        -1.188910
 H        -0.724165         4.362874         1.097387
 H        -1.395249         4.347150        -0.490388
 H        -3.368072         3.524993         0.853304
 H        -3.024497         0.897281        -0.044954
