19
Iteration:  2278charge 0 multiplicity 1
 O        -3.060729         1.928223         3.120996
 C        -2.189031         2.012487         2.036156
 C        -0.617465         1.409462         2.125668
 C        -0.735001         1.241216         0.659989
 O        -0.293797         0.132805        -0.211524
 C        -0.194662         2.420357        -0.151961
 C        -1.115255         3.675177         0.149847
 C        -2.307543         2.949572         0.883483
 C        -2.318380         1.420053         0.631567
 H        -3.526096         1.024924         2.936434
 H         0.228124         1.904182         2.563433
 H        -0.718168         0.508856         2.694967
 H         0.633547         0.107511        -0.004768
 H         0.820146         2.738924         0.050057
 H        -0.237470         2.208835        -1.235510
 H        -0.624912         4.543809         0.671088
 H        -1.500852         3.906844        -0.841035
 H        -3.195199         3.646493         0.856387
 H        -3.061814         0.778685         0.106481
