19
Iteration:  4131charge 0 multiplicity 1
 O        -3.175398         1.785034         2.955382
 C        -2.166536         1.825549         1.978785
 C        -0.704136         1.469936         2.040626
 C        -0.757560         1.272014         0.516950
 O        -0.197237         0.071179         0.085012
 C        -0.095127         2.564798        -0.131301
 C        -1.059788         3.682814         0.329934
 C        -2.268034         2.911489         0.933883
 C        -2.328184         1.512870         0.513883
 H        -3.178889         2.676271         3.226567
 H        -0.019171         2.248651         2.561716
 H        -0.653200         0.438995         2.641958
 H        -0.655419        -0.176105        -0.743910
 H         0.995897         2.722407         0.098611
 H        -0.096870         2.411814        -1.251764
 H        -0.552750         4.457417         0.953033
 H        -1.498456         4.041404        -0.602684
 H        -3.297076         3.324098         0.843597
 H        -3.106781         1.150794        -0.196645
