19
Iteration:  3648
 O        -3.029690         1.792766         3.143685
 C        -2.218906         1.932251         1.950992
 C        -0.825142         1.492285         2.105871
 C        -0.773410         1.253341         0.580154
 O        -0.227535         0.089758         0.022976
 C        -0.033245         2.493995        -0.076743
 C        -1.156185         3.618722         0.159901
 C        -2.341802         2.927462         0.796088
 C        -2.259359         1.470489         0.476516
 H        -2.857323         2.618349         3.635095
 H        -0.019886         2.032490         2.595283
 H        -0.855919         0.418790         2.575787
 H         0.072146         0.293611        -0.897943
 H         0.994399         2.750585         0.353265
 H         0.049716         2.476935        -1.135635
 H        -0.700017         4.460134         0.773173
 H        -1.577653         4.105448        -0.740073
 H        -3.266499         3.410817         0.687839
 H        -3.008589         0.917760        -0.056734
