19
Iteration:   600
 O        -3.128028         1.931557         3.040675
 C        -2.211917         1.844658         1.896649
 C        -0.845388         1.422675         2.099462
 C        -0.777155         1.266607         0.486302
 O        -0.199618         0.023181         0.140171
 C        -0.130899         2.495459        -0.195893
 C        -0.937678         3.707858         0.475258
 C        -2.261716         2.999798         0.782564
 C        -2.292273         1.499121         0.391837
 H        -3.509140         1.034537         3.287249
 H        -0.015645         2.007405         2.601685
 H        -0.917829         0.476860         2.556684
 H        -0.044776        -0.017509        -0.810093
 H         0.924753         2.549837        -0.061609
 H        -0.291028         2.560145        -1.307163
 H        -0.524632         4.118548         1.400613
 H        -1.144170         4.600984        -0.110395
 H        -3.271869         3.398400         0.871644
 H        -3.057063         1.041880        -0.189306
