19
Iteration:   391
 O        -3.218440         1.765137         2.854319
 C        -2.143304         1.969037         1.918547
 C        -0.634329         1.521347         2.130647
 C        -0.713627         1.248021         0.540411
 O        -0.417981         0.008161         0.096598
 C        -0.139885         2.496766        -0.086518
 C        -0.995948         3.758230         0.371258
 C        -2.321952         2.976540         0.821934
 C        -2.255248         1.473571         0.433924
 H        -2.817579         1.209760         3.508302
 H         0.148396         2.327716         2.286382
 H        -0.550095         0.598267         2.824838
 H         0.424440        -0.254082         0.539172
 H         0.865442         2.653554         0.237082
 H        -0.026322         2.312313        -1.151547
 H        -0.473462         4.347029         1.206571
 H        -1.303044         4.419417        -0.527120
 H        -3.255265         3.565900         0.884090
 H        -2.974212         1.000652        -0.230700
