19
Iteration:  3508
 O        -3.187578         1.733029         2.945585
 C        -2.101888         1.880922         1.929145
 C        -0.688397         1.571174         2.079908
 C        -0.632795         1.327994         0.472526
 O        -0.349388        -0.011076         0.249093
 C        -0.264138         2.511994        -0.340296
 C        -1.103981         3.743552         0.349215
 C        -2.262195         2.972061         0.928376
 C        -2.182020         1.471342         0.569446
 H        -2.917347         2.099935         3.737950
 H        -0.130807         2.353490         2.642872
 H        -0.396106         0.513049         2.474388
 H         0.002451        -0.228456        -0.662542
 H         0.895749         2.572139        -0.310061
 H        -0.526826         2.414699        -1.514735
 H        -0.420753         4.246169         1.012824
 H        -1.537884         4.386031        -0.415679
 H        -3.234139         3.268024         0.576859
 H        -2.903884         0.947125        -0.143402
