19
Iteration:  1410charge 0 multiplicity 1
 O        -3.109376         1.979235         3.049106
 C        -2.175849         1.927783         1.932523
 C        -0.769426         1.505234         2.044432
 C        -0.729898         1.214357         0.500413
 O        -0.415727        -0.017666        -0.059742
 C         0.012424         2.638192        -0.080227
 C        -1.073851         3.658061         0.333277
 C        -2.309684         2.868416         0.860516
 C        -2.262922         1.404898         0.501138
 H        -3.040156         1.120644         3.493683
 H        -0.088429         2.212058         2.470693
 H        -0.593381         0.491830         2.599925
 H         0.406334        -0.260675         0.365933
 H         0.825463         2.939680         0.640086
 H         0.426823         2.626061        -1.088850
 H        -0.723664         4.529096         0.878486
 H        -1.586425         4.032458        -0.584570
 H        -3.228033         3.411506         0.763525
 H        -2.877069         0.789193        -0.117774
