19
Iteration:  2474
 O        -2.975404         1.965139         3.142431
 C        -2.179734         1.920321         1.977752
 C        -0.716801         1.460985         2.111700
 C        -0.774813         1.218345         0.515196
 O        -0.237590         0.074573        -0.129574
 C        -0.119529         2.459771        -0.017112
 C        -1.089840         3.710290         0.226420
 C        -2.379098         2.929384         0.741373
 C        -2.339803         1.436769         0.571336
 H        -2.784901         1.244764         3.841655
 H        -0.164655         2.411261         2.387293
 H        -0.616330         0.637983         2.904534
 H        -0.917237        -0.255051        -0.768851
 H         0.891619         2.666001         0.357093
 H         0.019552         2.173658        -1.084394
 H        -0.796835         4.374740         1.013807
 H        -1.329260         4.245396        -0.667376
 H        -3.356996         3.340072         0.721553
 H        -2.917143         0.778753        -0.069286
