19
Iteration:  4460
 O        -3.162813         1.799215         2.908009
 C        -2.140620         1.960683         2.024110
 C        -0.640292         1.576909         1.960856
 C        -0.727643         1.296304         0.464703
 O        -0.339974        -0.079932         0.096113
 C        -0.116113         2.510105        -0.181228
 C        -1.071975         3.683330         0.441687
 C        -2.359897         3.014688         0.935092
 C        -2.279008         1.494163         0.530987
 H        -3.305195         0.866022         2.894267
 H         0.157866         2.281724         2.157031
 H        -0.409732         0.632973         2.498243
 H         0.654703        -0.121952        -0.017474
 H         0.911277         2.671296         0.083722
 H        -0.067063         2.556249        -1.179279
 H        -0.673206         4.339951         1.150499
 H        -1.437169         4.441330        -0.253594
 H        -3.342977         3.394818         0.849986
 H        -3.007359         0.871241         0.000942
