19
Iteration:   444
 O        -3.282227         1.890181         2.974990
 C        -2.219958         1.825112         1.985004
 C        -0.807528         1.344175         2.117054
 C        -0.739679         1.246499         0.611522
 O        -0.098185         0.030434         0.074608
 C        -0.176160         2.498123        -0.145487
 C        -0.937745         3.693040         0.309126
 C        -2.269745         2.996539         0.774482
 C        -2.320881         1.557401         0.461897
 H        -2.908914         2.225946         3.776636
 H        -0.151593         1.974083         2.745241
 H        -0.701893         0.257141         2.533216
 H         0.328029         0.473483        -0.692186
 H         0.924650         2.516390        -0.034840
 H        -0.485313         2.369143        -1.207081
 H        -0.554571         4.381571         1.024394
 H        -1.178479         4.468691        -0.466617
 H        -3.144722         3.634446         0.635016
 H        -2.966202         0.908947        -0.105244
