19
Iteration:  2963
 O        -3.139191         1.833766         3.047746
 C        -2.132323         1.862151         2.021909
 C        -0.621506         1.529719         2.048424
 C        -0.666513         1.316919         0.454076
 O        -0.351998        -0.040732         0.218125
 C        -0.189900         2.628172        -0.272968
 C        -1.128498         3.708555         0.328672
 C        -2.258176         2.896623         0.891349
 C        -2.170310         1.495443         0.472447
 H        -3.766958         1.107426         2.681673
 H        -0.057780         2.460955         2.189348
 H        -0.236175         0.615131         2.614829
 H        -0.636190        -0.379742        -0.625578
 H         0.889538         2.795494        -0.253692
 H        -0.512186         2.500438        -1.357768
 H        -0.607609         4.228139         1.116132
 H        -1.737811         4.323044        -0.326792
 H        -3.212126         3.343788         0.921580
 H        -2.831415         0.943222        -0.162166
