19
Iteration:  4553charge 0 multiplicity 1
 O        -3.044007         1.982340         2.968617
 C        -2.162572         1.944993         1.961833
 C        -0.693668         1.411527         2.045282
 C        -0.668350         1.247002         0.470424
 O        -0.322066         0.047418        -0.027462
 C        -0.163505         2.561887        -0.001296
 C        -1.174676         3.686842         0.366126
 C        -2.365574         2.904512         0.826991
 C        -2.316934         1.422010         0.434259
 H        -2.832358         1.147129         3.538517
 H         0.077512         2.032953         2.570092
 H        -0.585389         0.373529         2.497561
 H         0.514414        -0.217123         0.351142
 H         0.773510         2.621301         0.536866
 H         0.264367         2.439811        -1.070768
 H        -0.617522         4.311896         1.209651
 H        -1.416532         4.450854        -0.383678
 H        -3.329234         3.364424         0.800057
 H        -3.038576         0.739511        -0.000638
