19
Iteration:   623
 O        -3.277355         1.967096         2.886525
 C        -2.183089         2.012175         2.004117
 C        -0.712740         1.424825         2.090316
 C        -0.730719         1.216457         0.487877
 O        -0.223259         0.016470        -0.047834
 C        -0.107307         2.510733        -0.079642
 C        -0.977392         3.550887         0.471257
 C        -2.339998         3.016826         0.833926
 C        -2.232540         1.437008         0.580738
 H        -3.085770         1.251203         3.522811
 H         0.149345         2.139208         2.402655
 H        -0.664360         0.567708         2.672841
 H        -0.404962        -0.123279        -1.018802
 H         0.877478         2.858020         0.111087
 H        -0.178944         2.685036        -1.164379
 H        -0.594676         4.102975         1.363997
 H        -1.097074         4.373428        -0.205057
 H        -3.329976         3.492375         0.603211
 H        -2.841210         0.768346        -0.008846
