19
Iteration:  2454
 O        -2.940706         1.809128         3.063070
 C        -2.160761         2.086456         1.933561
 C        -0.727308         1.558193         2.015131
 C        -0.763855         1.217797         0.526601
 O        -0.258697        -0.007718         0.085065
 C        -0.155344         2.521429        -0.163577
 C        -1.118656         3.632202         0.332330
 C        -2.368759         2.987751         0.841595
 C        -2.328884         1.480760         0.490468
 H        -2.559980         0.982843         3.487301
 H         0.145498         2.154478         2.389520
 H        -0.831757         0.561358         2.384988
 H        -0.781841        -0.407096        -0.587217
 H         0.820977         2.588191         0.302324
 H        -0.077004         2.402562        -1.264121
 H        -0.841904         4.288213         1.170547
 H        -1.250205         4.225929        -0.558724
 H        -3.310781         3.473467         0.719957
 H        -3.215549         0.974862         0.238181
