19
Iteration:  4397
 O        -3.135176         1.886040         2.997498
 C        -2.154349         2.011302         2.002972
 C        -0.785556         1.384927         2.078387
 C        -0.739252         1.270728         0.490071
 O        -0.201743         0.028053        -0.042556
 C        -0.166706         2.554387        -0.159351
 C        -1.094806         3.666978         0.355512
 C        -2.299947         2.929524         0.857600
 C        -2.300500         1.517920         0.562705
 H        -3.086646         0.992713         3.281017
 H         0.090765         1.856843         2.582768
 H        -0.845593         0.389309         2.396645
 H         0.687514        -0.069119         0.409943
 H         0.847916         2.721254         0.103037
 H        -0.238195         2.349383        -1.348958
 H        -0.688552         4.344439         1.109669
 H        -1.353082         4.247534        -0.557405
 H        -3.172242         3.571432         0.820548
 H        -2.944097         0.825749         0.028462
