19
Iteration:  2021charge 0 multiplicity 1
 O        -3.239445         1.809872         3.002110
 C        -2.201511         1.906559         2.056832
 C        -0.726984         1.533492         2.218260
 C        -0.701444         1.287793         0.506695
 O        -0.159169         0.093160         0.004513
 C        -0.229856         2.459478        -0.380200
 C        -0.956369         3.678649         0.279841
 C        -2.285385         2.970419         0.943291
 C        -2.259012         1.480305         0.531127
 H        -2.877399         1.602806         3.945304
 H         0.026552         2.284241         2.236257
 H        -0.645003         0.576552         2.711525
 H        -0.738709        -0.622486         0.234085
 H         0.891089         2.636031        -0.491180
 H        -0.622951         2.412376        -1.392359
 H        -0.410199         4.236694         1.063339
 H        -1.331264         4.206929        -0.629511
 H        -3.291345         3.393067         0.810554
 H        -2.875160         0.906151        -0.100753
