19
Iteration:  4740charge 0 multiplicity 1
 O        -3.128409         1.918154         3.057364
 C        -2.175141         1.890788         2.031377
 C        -0.801161         1.261734         2.127359
 C        -0.671700         1.283928         0.626170
 O        -0.266977         0.152354        -0.004581
 C        -0.064939         2.553534        -0.119542
 C        -1.086289         3.699656         0.140084
 C        -2.318560         2.928538         0.864980
 C        -2.222301         1.502892         0.541365
 H        -3.575416         0.986931         2.989606
 H         0.058267         1.858851         2.551558
 H        -0.783797         0.197981         2.746520
 H        -0.439471         0.404895        -0.946494
 H         0.889597         2.991355         0.158050
 H        -0.016826         2.420241        -1.234848
 H        -0.476975         4.490516         0.689690
 H        -1.604417         3.972381        -0.794734
 H        -3.317894         3.274676         0.647192
 H        -2.902645         0.707210         0.181317
