19
Iteration:  3298
 O        -3.010453         1.776031         3.026245
 C        -2.102785         1.910503         1.990798
 C        -0.684409         1.582525         2.074863
 C        -0.723541         1.254298         0.510235
 O        -0.204851         0.027277         0.087286
 C        -0.109147         2.414502        -0.156532
 C        -1.171791         3.643517         0.255360
 C        -2.377572         2.999838         0.832465
 C        -2.356486         1.493372         0.549369
 H        -3.884435         2.066941         2.664189
 H        -0.046156         2.427321         2.393734
 H        -0.552171         0.745213         2.800565
 H        -0.780621        -0.221565        -0.647760
 H         0.866255         2.785160         0.206151
 H        -0.066515         2.554449        -1.231579
 H        -0.579618         4.171548         0.987850
 H        -1.316266         4.308528        -0.573800
 H        -3.224233         3.562858         1.193906
 H        -3.232206         1.031034         0.080131
