19
Iteration:  4391
 O        -3.117238         1.930479         2.966344
 C        -2.172183         1.969729         2.008333
 C        -0.731599         1.351775         2.034547
 C        -0.776082         1.282874         0.502983
 O        -0.173937         0.039079        -0.039953
 C        -0.172431         2.514491        -0.189588
 C        -1.097627         3.688825         0.371421
 C        -2.341522         2.947685         0.851997
 C        -2.310726         1.485320         0.588111
 H        -3.302805         1.023171         3.351255
 H         0.052312         1.939523         2.545077
 H        -0.913008         0.337811         2.564017
 H         0.734282        -0.062499         0.298633
 H         0.891590         2.633255         0.220370
 H         0.099872         2.492518        -1.208482
 H        -0.569070         4.425647         1.038262
 H        -1.337776         4.385655        -0.436628
 H        -3.316925         3.476205         1.018439
 H        -3.039239         0.830662         0.127373
