19
Iteration:  4031charge 0 multiplicity 1
 O        -3.168581         1.844020         3.044708
 C        -2.207394         1.859267         2.003672
 C        -0.790244         1.342698         2.098357
 C        -0.667742         1.333488         0.558259
 O        -0.263354         0.084056         0.073546
 C        -0.190642         2.580612        -0.169846
 C        -1.040652         3.728356         0.248200
 C        -2.287393         2.898834         0.868144
 C        -2.176422         1.465357         0.479382
 H        -3.299671         2.781646         3.177384
 H         0.095688         1.805470         2.679664
 H        -0.897797         0.136025         2.265756
 H         0.311539         0.142596        -0.681568
 H         0.974047         2.564991         0.027532
 H        -0.183201         2.390425        -1.256155
 H        -0.716899         4.294725         1.147021
 H        -1.398993         4.252327        -0.652385
 H        -3.294970         3.240130         0.791350
 H        -2.936063         0.914401        -0.053021
