19
Iteration:   501
 O        -3.118379         1.900759         3.030494
 C        -2.201830         1.854955         1.901017
 C        -0.784214         1.399296         2.060551
 C        -0.667051         1.199493         0.535165
 O        -0.252327        -0.028561         0.064967
 C        -0.035783         2.606981        -0.012684
 C        -1.079088         3.745109         0.317801
 C        -2.314231         2.976360         0.801078
 C        -2.250755         1.420847         0.468083
 H        -3.724738         2.692422         3.026634
 H        -0.161241         2.064580         2.735398
 H        -0.907866         0.438659         2.585657
 H        -0.476446         0.017243        -0.883117
 H         0.930729         2.720496         0.421457
 H         0.119264         2.496640        -1.091204
 H        -0.769129         4.278882         1.201737
 H        -1.306208         4.364286        -0.557122
 H        -3.316112         3.402165         0.757235
 H        -3.034628         1.000740        -0.208681
