19
Iteration:    78
 O        -3.286444         1.918691         2.831031
 C        -2.133206         1.915929         1.976306
 C        -0.631430         1.487235         2.179618
 C        -0.653855         1.294382         0.619711
 O        -0.128595         0.065320         0.027224
 C        -0.180224         2.481535        -0.157672
 C        -1.195781         3.667484         0.193862
 C        -2.300274         2.978664         0.885454
 C        -2.223611         1.407143         0.609234
 H        -2.981923         1.789272         3.790541
 H         0.017156         2.104456         2.535882
 H        -0.411745         0.534433         2.623785
 H        -0.623750        -0.694015         0.397610
 H         0.867781         2.790767        -0.047127
 H        -0.438669         2.123409        -1.188288
 H        -0.720748         4.373053         0.877156
 H        -1.521292         4.211838        -0.674211
 H        -3.341315         3.336955         0.634831
 H        -2.961776         0.781573        -0.003157
