19
Iteration:  1758charge 0 multiplicity 1
 O        -2.945556         2.032996         3.044785
 C        -2.208598         1.949091         1.916834
 C        -0.800425         1.297677         2.031444
 C        -0.742884         1.217552         0.550313
 O        -0.180588         0.086122        -0.016160
 C        -0.033789         2.485226        -0.025041
 C        -1.217300         3.689473         0.272977
 C        -2.445092         2.924088         0.739112
 C        -2.377938         1.468031         0.492972
 H        -2.948879         1.205413         3.456833
 H        -0.022938         1.841282         2.584135
 H        -0.944933         0.240345         2.454362
 H         0.533502        -0.095509         0.626417
 H         0.792102         2.861090         0.639023
 H         0.378926         2.542812        -1.044954
 H        -0.810817         4.323326         1.111301
 H        -1.151610         4.349633        -0.646590
 H        -3.341815         3.487499         0.884347
 H        -3.136423         0.849170         0.085102
