19
Iteration:  2553charge 0 multiplicity 1
 O        -2.971059         1.885620         3.177049
 C        -2.237422         2.003247         1.994554
 C        -0.779813         1.476339         2.067756
 C        -0.812367         1.304188         0.458506
 O        -0.194375         0.136750        -0.075492
 C        -0.111543         2.411546        -0.189951
 C        -1.070407         3.574157         0.258272
 C        -2.341971         2.946744         0.874579
 C        -2.292929         1.539324         0.506070
 H        -3.100777         0.931467         3.507825
 H         0.082962         2.147234         2.513468
 H        -0.726704         0.458875         2.519723
 H        -0.602639        -0.668722         0.336267
 H         0.909905         2.529243         0.186588
 H        -0.100883         2.177125        -1.293225
 H        -0.571637         4.298236         0.928927
 H        -1.512491         4.237741        -0.468155
 H        -3.434172         3.289757         0.891615
 H        -3.112588         1.065791        -0.025590
