19
Iteration:  2335charge 0 multiplicity 1
 O        -2.907502         2.098582         3.103706
 C        -2.164272         1.815170         2.016110
 C        -0.749230         1.279948         2.033922
 C        -0.744294         1.266086         0.459961
 O        -0.369595        -0.003011         0.001679
 C        -0.118092         2.634430        -0.113832
 C        -1.235592         3.687365         0.278171
 C        -2.323879         2.794916         0.898338
 C        -2.248921         1.491352         0.368699
 H        -2.625533         1.526662         3.782090
 H        -0.253675         2.128538         2.532404
 H        -0.564692         0.335525         2.442888
 H         0.435683        -0.259225         0.547509
 H         0.820729         3.084721         0.350293
 H         0.069194         2.720218        -1.227351
 H        -1.025017         4.624413         0.936018
 H        -1.693260         4.186777        -0.643922
 H        -3.265978         3.284876         0.989819
 H        -3.034848         1.083600        -0.334450
