19
Iteration:  3736
 O        -3.152323         1.742173         3.019631
 C        -2.243654         1.934889         2.016394
 C        -0.756027         1.591921         2.152929
 C        -0.730842         1.283255         0.415265
 O        -0.149547         0.062496         0.113832
 C        -0.141011         2.485692        -0.314414
 C        -1.057705         3.614682         0.301848
 C        -2.322723         2.928519         0.877430
 C        -2.243696         1.453168         0.551637
 H        -3.071951         2.602656         3.561887
 H        -0.101871         2.388935         2.567332
 H        -0.518130         0.572568         2.712524
 H        -0.783385        -0.259437        -0.590206
 H         0.972496         2.718829        -0.163583
 H        -0.385170         2.409494        -1.393358
 H        -0.401985         4.135876         1.118884
 H        -1.275255         4.408601        -0.462962
 H        -3.232805         3.517643         0.941560
 H        -3.002163         0.991297        -0.074088
