19
Iteration:  4755charge 0 multiplicity 1
 O        -3.147103         1.838665         2.999229
 C        -2.136732         1.959627         1.994126
 C        -0.680502         1.421769         2.165370
 C        -0.721056         1.312153         0.551437
 O        -0.270623         0.038555        -0.020539
 C        -0.092850         2.535714        -0.071217
 C        -1.118882         3.660167         0.195035
 C        -2.332305         2.991030         0.851376
 C        -2.261476         1.477407         0.581089
 H        -3.546361         0.962630         2.987348
 H         0.033434         2.028229         2.747962
 H        -0.733954         0.369159         2.421634
 H        -0.126011         0.130799        -0.958958
 H         0.944304         2.567279         0.253092
 H        -0.089200         2.269574        -1.165439
 H        -0.837388         4.528926         0.845999
 H        -1.300348         4.197642        -0.724603
 H        -3.219170         3.623551         1.114726
 H        -2.896021         0.873682        -0.018196
