19
Iteration:  3428
 O        -2.958250         2.001665         3.128354
 C        -2.176445         1.780377         1.924163
 C        -0.815216         1.253990         2.152056
 C        -0.758324         1.264786         0.549089
 O        -0.231029         0.044176         0.032711
 C        -0.089794         2.681966        -0.049586
 C        -1.223473         3.713799         0.159467
 C        -2.342494         2.869976         0.813289
 C        -2.254070         1.405450         0.475246
 H        -3.052148         2.916015         3.130479
 H        -0.109258         1.986008         2.584206
 H        -0.790969         0.222508         2.572985
 H         0.007461         0.174714        -0.928311
 H         0.856810         2.717507         0.589235
 H         0.179593         2.651052        -1.139936
 H        -0.831134         4.574387         0.758059
 H        -1.577386         4.214875        -0.741207
 H        -3.414511         3.203133         0.801519
 H        -2.899751         0.832442        -0.116890
