19
Iteration:  2406charge 0 multiplicity 1
 O        -3.138495         1.854941         2.976379
 C        -2.120841         1.863213         2.041661
 C        -0.680148         1.557979         2.129518
 C        -0.691789         1.336302         0.518232
 O        -0.300693         0.002953         0.100521
 C        -0.304597         2.458199        -0.423328
 C        -1.052478         3.653044         0.343407
 C        -2.235838         2.975637         1.017178
 C        -2.225517         1.525519         0.611149
 H        -3.580532         1.050016         2.811184
 H        -0.055211         2.449261         2.297200
 H        -0.303026         0.550654         2.564703
 H         0.201473        -0.096811        -0.752497
 H         0.796385         2.412988        -0.699239
 H        -0.943229         2.292773        -1.313438
 H        -0.272459         4.186477         0.835914
 H        -1.405397         4.359640        -0.412164
 H        -3.248743         3.465765         1.013912
 H        -3.007692         1.044194        -0.050632
