19
Iteration:  4896charge 0 multiplicity 1
 O        -3.049283         1.862503         3.080094
 C        -2.157975         1.943147         1.968504
 C        -0.742081         1.327521         2.130987
 C        -0.735496         1.240777         0.611523
 O        -0.305031         0.012839         0.031796
 C        -0.025140         2.651162        -0.049293
 C        -1.165871         3.722300         0.208735
 C        -2.375872         2.941809         0.771635
 C        -2.218900         1.471471         0.428389
 H        -3.081721         0.940908         3.162641
 H         0.023090         2.017855         2.615409
 H        -1.069946         0.318529         2.680612
 H        -0.305689         0.247765        -0.896747
 H         0.876196         2.912142         0.481881
 H         0.187471         2.337954        -1.123392
 H        -0.791349         4.688882         0.824844
 H        -1.529163         4.272122        -0.660969
 H        -3.320098         3.418402         1.066749
 H        -2.842182         1.137889        -0.417476
