19
Iteration:  4534charge 0 multiplicity 1
 O        -3.113809         2.035219         2.965340
 C        -2.136195         1.918172         1.951712
 C        -0.757583         1.330054         1.996647
 C        -0.790218         1.231562         0.492605
 O        -0.165400        -0.068596        -0.084916
 C        -0.097471         2.602765        -0.034871
 C        -1.168813         3.718770         0.366484
 C        -2.366631         2.943153         0.904230
 C        -2.308334         1.443957         0.540336
 H        -2.897107         1.188584         3.533013
 H         0.051325         1.932645         2.453506
 H        -0.702384         0.406736         2.731899
 H         0.687693         0.137132         0.286628
 H         1.099648         2.712891         0.260959
 H        -0.067266         2.542258        -1.281174
 H        -0.944231         4.533464         1.240876
 H        -1.439004         4.255241        -0.557464
 H        -3.252813         3.448341         0.948388
 H        -3.151614         0.994054         0.043420
