19
Iteration:  2872charge 0 multiplicity 1
 O        -3.020429         1.981643         3.128455
 C        -2.202368         1.889650         1.955596
 C        -0.651803         1.300899         2.112263
 C        -0.680524         1.328726         0.465707
 O        -0.348210         0.068393         0.015995
 C        -0.147168         2.608050        -0.079295
 C        -1.146697         3.693497         0.332375
 C        -2.327576         2.806217         0.863822
 C        -2.206243         1.411269         0.440481
 H        -3.765942         2.641767         2.831536
 H        -0.093709         2.046257         2.692426
 H        -0.661556         0.274650         2.374779
 H        -0.029939         0.039527        -0.936239
 H         0.954057         2.812736         0.066212
 H        -0.262336         2.376043        -1.184299
 H        -0.803389         4.362306         1.138583
 H        -1.395988         4.121659        -0.637983
 H        -3.415726         3.179280         0.856473
 H        -2.854013         0.761962        -0.228708
