19
Iteration:  1602charge 0 multiplicity 1
 O        -3.050243         1.939317         2.974543
 C        -2.111630         2.020164         1.986032
 C        -0.715260         1.405493         2.101248
 C        -0.660768         1.256665         0.527482
 O        -0.336480        -0.074583        -0.041921
 C        -0.127894         2.617620        -0.011856
 C        -1.158986         3.714719         0.202133
 C        -2.329496         2.918128         0.842369
 C        -2.280960         1.473463         0.571394
 H        -3.802818         1.349569         2.642979
 H         0.194051         1.817847         2.643989
 H        -0.917267         0.466680         2.561502
 H         0.531559        -0.565232         0.038238
 H         0.745420         2.869906         0.583333
 H         0.078554         2.521207        -1.099235
 H        -0.826565         4.353651         1.069837
 H        -1.445174         4.283829        -0.699660
 H        -3.347777         3.295609         0.925930
 H        -2.981967         0.780040         0.144806
