19
Iteration:  3492charge 0 multiplicity 1
 O        -3.172526         1.758545         2.978871
 C        -2.205879         1.903206         2.037302
 C        -0.678816         1.458725         2.151969
 C        -0.707391         1.351641         0.569220
 O        -0.217707         0.029837         0.133083
 C        -0.182127         2.514005        -0.304142
 C        -1.079540         3.628158         0.222779
 C        -2.316809         2.963619         0.869542
 C        -2.225566         1.516540         0.518843
 H        -2.863316         2.258573         3.749470
 H         0.084358         2.136179         2.563643
 H        -0.599474         0.549296         2.689644
 H        -0.369558         0.123894        -0.837017
 H         0.856443         2.777286        -0.428786
 H        -0.516847         2.295759        -1.273970
 H        -0.592662         4.359172         0.921966
 H        -1.393468         4.317174        -0.589993
 H        -3.286904         3.476209         1.020007
 H        -2.902176         0.929919        -0.023243
