19
Iteration:   514
 O        -3.080310         1.873005         2.924547
 C        -2.222292         1.907346         1.927981
 C        -0.824159         1.459995         2.217667
 C        -0.711196         1.342794         0.619876
 O        -0.317945        -0.016907        -0.027825
 C        -0.065402         2.563366        -0.040538
 C        -1.056000         3.637582         0.345613
 C        -2.242897         2.853272         0.828371
 C        -2.227201         1.457824         0.483337
 H        -3.750269         2.489155         2.641742
 H        -0.029581         2.218334         2.617514
 H        -0.639388         0.515711         2.593663
 H        -0.533964         0.106135        -0.973859
 H         0.831503         2.870494         0.431038
 H         0.084762         2.459753        -1.086463
 H        -0.573102         4.421553         0.976377
 H        -1.401436         4.254742        -0.461447
 H        -3.175925         3.410211         0.743680
 H        -2.828700         0.757534        -0.049001
