19
Iteration:   447
 O        -3.237160         1.885321         2.959808
 C        -2.245628         1.819632         1.979450
 C        -0.837828         1.320699         2.132383
 C        -0.751464         1.241864         0.605313
 O        -0.072161         0.032606         0.084908
 C        -0.152381         2.498224        -0.162363
 C        -0.934525         3.706063         0.324778
 C        -2.291529         3.024749         0.775925
 C        -2.355697         1.548091         0.468167
 H        -2.856310         2.317020         3.764231
 H        -0.078958         1.969172         2.732733
 H        -0.749045         0.306148         2.536609
 H         0.328768         0.438681        -0.717752
 H         0.889371         2.556683        -0.022881
 H        -0.431293         2.292231        -1.194122
 H        -0.489955         4.439143         1.045627
 H        -1.200346         4.425617        -0.501040
 H        -3.183817         3.647013         0.659844
 H        -3.035792         0.879481        -0.137031
