19
Iteration:  2839
 O        -3.030527         1.847012         3.072551
 C        -2.096343         2.072503         1.994533
 C        -0.708903         1.442978         2.106746
 C        -0.792558         1.244601         0.492368
 O        -0.255787         0.030959        -0.108375
 C        -0.165064         2.491729        -0.119802
 C        -1.100701         3.658848         0.279630
 C        -2.323525         2.996122         0.855459
 C        -2.366802         1.424047         0.559108
 H        -3.593540         1.015049         2.960703
 H         0.011602         2.091737         2.650743
 H        -0.782361         0.642916         2.787595
 H         0.710847        -0.023635        -0.187171
 H         0.840381         2.712579         0.340568
 H        -0.103917         2.451380        -1.237978
 H        -0.672546         4.333098         1.071478
 H        -1.102974         4.326741        -0.567653
 H        -3.349923         3.418428         0.817580
 H        -3.310744         0.893461         0.279831
