19
Iteration:  3211
 O        -3.049208         1.962164         3.166089
 C        -2.210927         1.944699         1.997359
 C        -0.729026         1.411838         2.059722
 C        -0.761924         1.217781         0.498099
 O        -0.137123         0.012244         0.009898
 C        -0.145339         2.535395        -0.129760
 C        -1.169559         3.572263         0.286507
 C        -2.394593         2.895688         0.807836
 C        -2.328647         1.466326         0.485681
 H        -3.226554         2.965948         3.280065
 H         0.109661         2.057064         2.397575
 H        -0.557243         0.365876         2.409999
 H         0.528166         0.385162        -0.560357
 H         0.883416         2.714522         0.260568
 H        -0.022041         2.524777        -1.240261
 H        -0.635295         4.264604         0.979868
 H        -1.349833         4.218077        -0.593204
 H        -3.357805         3.377109         0.693571
 H        -3.094905         0.875818        -0.136725
