19
Iteration:   289
 O        -3.214959         1.883211         3.088185
 C        -2.205268         1.937928         1.931329
 C        -0.742473         1.484304         2.122697
 C        -0.656038         1.270710         0.587308
 O        -0.198029         0.121512        -0.032523
 C        -0.106050         2.509442        -0.099678
 C        -1.011227         3.632310         0.353994
 C        -2.306458         2.894691         0.765282
 C        -2.218254         1.414762         0.461146
 H        -3.960145         2.487910         2.804865
 H         0.003393         2.032154         2.761466
 H        -0.768073         0.356878         2.538941
 H        -0.932543        -0.524967        -0.036901
 H         0.958102         2.626933         0.253161
 H        -0.072490         2.451886        -1.197743
 H        -0.660937         4.344725         1.146104
 H        -1.340867         4.023063        -0.660900
 H        -3.256043         3.396747         0.558094
 H        -2.984519         0.878953        -0.155853
