19
Iteration:  1709charge 0 multiplicity 1
 O        -3.254472         1.970859         2.981318
 C        -2.168666         1.874701         1.984008
 C        -0.688544         1.462118         2.164696
 C        -0.656203         1.373235         0.498714
 O        -0.348720        -0.028775         0.037287
 C        -0.131213         2.589867        -0.211659
 C        -1.077017         3.602935         0.300945
 C        -2.297736         2.899364         0.869717
 C        -2.176330         1.462212         0.510393
 H        -3.240454         1.105751         3.539752
 H        -0.074804         2.226128         2.762798
 H        -0.539599         0.438169         2.456907
 H         0.546161         0.019310        -0.384474
 H         0.896721         2.850357        -0.006270
 H        -0.179020         2.157853        -1.244256
 H        -0.440758         4.174203         0.995938
 H        -1.405749         4.314591        -0.430518
 H        -3.219453         3.479003         1.016253
 H        -2.934488         0.869865        -0.043949
