19
Iteration:  2785
 O        -3.074419         1.777741         2.923508
 C        -2.108296         1.882173         2.003995
 C        -0.684325         1.439465         2.095940
 C        -0.719355         1.368262         0.535635
 O        -0.358672        -0.011230         0.067325
 C        -0.246791         2.597542        -0.351687
 C        -1.066733         3.717502         0.407963
 C        -2.271045         2.989118         0.886941
 C        -2.228808         1.435869         0.479501
 H        -2.587904         1.925736         3.810396
 H        -0.074167         2.189268         2.713066
 H        -0.588171         0.418654         2.533400
 H        -0.613246        -0.600246         0.816271
 H         0.853288         2.829317        -0.404062
 H        -0.655155         2.540567        -1.388091
 H        -0.546316         4.430126         1.067506
 H        -1.315049         4.480170        -0.324241
 H        -3.280417         3.454493         0.995499
 H        -2.939529         0.781976        -0.019329
