19
Iteration:  3955charge 0 multiplicity 1
 O        -3.079070         1.848422         3.018615
 C        -2.169732         1.879650         1.911159
 C        -0.836659         1.343550         2.168076
 C        -0.682947         1.314332         0.548437
 O        -0.304512         0.080109         0.003787
 C        -0.091577         2.562093        -0.068018
 C        -1.125157         3.697909         0.202023
 C        -2.308495         2.890435         0.862171
 C        -2.228481         1.504498         0.472635
 H        -3.128603         2.760044         3.362820
 H        -0.257653         1.873245         2.997834
 H        -0.683132         0.218574         2.558043
 H         0.599487        -0.073104        -0.325096
 H         0.996121         2.825573         0.224023
 H        -0.076641         2.264936        -1.158372
 H        -0.712535         4.425836         0.937785
 H        -1.712402         4.208518        -0.568339
 H        -3.287380         3.316462         0.894039
 H        -2.867343         0.887813        -0.078574
