19
Iteration:   171charge 0 multiplicity 1
 O        -3.150560         2.030641         2.946354
 C        -2.214716         2.008534         1.950379
 C        -0.801826         1.456435         2.070749
 C        -0.717496         1.244169         0.496805
 O        -0.126178         0.029580         0.028404
 C        -0.104017         2.517906        -0.176420
 C        -1.109451         3.548583         0.369553
 C        -2.394997         2.913628         0.844497
 C        -2.282161         1.425996         0.524113
 H        -3.192872         1.171442         3.342749
 H        -0.037544         1.972068         2.691906
 H        -0.641913         0.528479         2.603360
 H         0.508501        -0.131299         0.759941
 H         0.943787         2.822043         0.017948
 H        -0.194812         2.553893        -1.275715
 H        -0.658778         4.167560         1.201663
 H        -1.256412         4.326173        -0.452025
 H        -3.286307         3.491862         0.866237
 H        -2.845537         0.635439         0.044665
