19
Iteration:  2568charge 0 multiplicity 1
 O        -3.078798         1.877661         3.207925
 C        -2.209720         1.881567         2.036936
 C        -0.699785         1.596923         1.999263
 C        -0.740498         1.266345         0.488789
 O        -0.331783         0.062091        -0.057763
 C        -0.127462         2.512953        -0.258044
 C        -1.012272         3.634953         0.329650
 C        -2.317801         2.928665         0.882209
 C        -2.318235         1.435636         0.472039
 H        -2.933688         0.987346         3.510624
 H        -0.124096         2.461756         2.283885
 H        -0.469896         0.682059         2.537590
 H        -0.325689        -0.541862         0.668144
 H         0.935925         2.641989         0.058193
 H        -0.217622         2.491864        -1.361312
 H        -0.434062         4.174368         1.121210
 H        -1.205629         4.291266        -0.564635
 H        -3.126484         3.581534         0.585774
 H        -3.006135         0.989977        -0.287816
