19
Iteration:  4623
 O        -3.201194         1.819349         2.883273
 C        -2.118671         1.964283         1.975101
 C        -0.629915         1.462747         2.016348
 C        -0.732017         1.308253         0.504856
 O        -0.210161         0.026996         0.127517
 C        -0.258112         2.491366        -0.250403
 C        -1.039807         3.626177         0.388681
 C        -2.234368         3.078819         0.936974
 C        -2.383345         1.475915         0.607800
 H        -3.557769         0.852983         2.870507
 H         0.079225         2.209538         2.443637
 H        -0.541169         0.351145         2.228670
 H         0.650314         0.115703        -0.258944
 H         0.930987         2.486378        -0.186033
 H        -0.453744         2.287999        -1.394066
 H        -0.494838         4.413906         1.106629
 H        -1.311289         4.404215        -0.354071
 H        -3.265428         3.487410         1.096778
 H        -3.283362         0.840138         0.487859
