19
Iteration:  4778charge 0 multiplicity 1
 O        -3.107461         1.815854         2.928327
 C        -2.159227         2.002170         1.947106
 C        -0.694342         1.460301         1.997689
 C        -0.817231         1.197518         0.499227
 O        -0.244433        -0.037199         0.134806
 C        -0.116481         2.607135        -0.143832
 C        -1.056141         3.679706         0.379191
 C        -2.348749         3.011912         0.947327
 C        -2.292855         1.486593         0.503340
 H        -3.256715         0.877223         3.116457
 H        -0.031469         2.325932         2.146055
 H        -0.417355         0.634300         2.538419
 H         0.171202         0.003030        -0.760088
 H         0.923390         2.737028         0.230837
 H        -0.063377         2.397277        -1.211786
 H        -0.614355         4.384497         1.057624
 H        -1.286272         4.377441        -0.416039
 H        -3.388231         3.416784         0.940424
 H        -3.169680         0.920252         0.155756
