19
Iteration:  2984
 O        -2.981972         1.804774         2.933143
 C        -2.124235         1.888864         1.911810
 C        -0.541559         1.560441         2.001632
 C        -0.728192         1.343359         0.478399
 O        -0.307194        -0.027883         0.241522
 C        -0.195721         2.549643        -0.197625
 C        -1.107014         3.690549         0.354906
 C        -2.385008         2.949261         0.892531
 C        -2.386012         1.456025         0.547233
 H        -3.794608         1.726411         2.504458
 H         0.181397         2.280789         2.429545
 H        -0.456372         0.540850         2.500108
 H        -0.224456        -0.178656        -0.726158
 H         0.806470         2.760922         0.216701
 H        -0.218201         2.528461        -1.333938
 H        -0.790641         4.170016         1.267720
 H        -1.454484         4.404786        -0.396618
 H        -3.368468         3.286445         1.041233
 H        -3.015155         0.667426         0.206331
