19
Iteration:  2840
 O        -3.024438         1.848288         3.069193
 C        -2.103204         2.072518         1.987855
 C        -0.702209         1.435254         2.115039
 C        -0.794312         1.243848         0.496961
 O        -0.258823         0.030601        -0.107606
 C        -0.163819         2.502895        -0.120448
 C        -1.100818         3.662814         0.279520
 C        -2.322818         2.987738         0.846832
 C        -2.363972         1.423546         0.560568
 H        -3.615257         1.088619         2.966509
 H         0.013664         2.099909         2.672121
 H        -0.774167         0.614015         2.808207
 H         0.684200        -0.019117        -0.235369
 H         0.828431         2.734848         0.354570
 H        -0.084108         2.429729        -1.237277
 H        -0.667339         4.290599         1.097593
 H        -1.126496         4.336314        -0.571462
 H        -3.377191         3.411809         0.834775
 H        -3.316068         0.886848         0.287573
