19
Iteration:  2682
 O        -2.895472         1.946140         3.064985
 C        -2.092104         1.981432         2.029156
 C        -0.699019         1.294118         2.035452
 C        -0.771696         1.284630         0.473891
 O        -0.318438        -0.030809        -0.000613
 C        -0.131081         2.601713        -0.049311
 C        -1.169855         3.766855         0.269743
 C        -2.341172         2.926980         0.740472
 C        -2.349527         1.404003         0.604459
 H        -3.747052         1.685698         2.828755
 H         0.049039         1.754932         2.613993
 H        -0.903127         0.337723         2.516068
 H        -0.061235        -0.120629        -0.907078
 H         0.744633         2.795757         0.558823
 H         0.134940         2.766745        -1.106855
 H        -0.713980         4.325346         1.076775
 H        -1.568032         4.337305        -0.570455
 H        -3.326130         3.490730         1.019648
 H        -3.104897         0.742311         0.060350
