19
Iteration:  3606charge 0 multiplicity 1
 O        -3.130303         2.031438         2.921346
 C        -2.084295         1.988543         1.971642
 C        -0.675082         1.208513         2.053459
 C        -0.710716         1.243840         0.509982
 O        -0.174178         0.068959         0.002444
 C        -0.172711         2.594001        -0.052433
 C        -1.253499         3.695237         0.291034
 C        -2.332575         2.867163         0.903336
 C        -2.247148         1.368890         0.594421
 H        -3.187199         2.856361         3.326904
 H         0.164337         1.791892         2.487598
 H        -0.659220         0.203376         2.597527
 H        -0.572450        -0.286606        -0.817040
 H         0.837977         2.825317         0.374009
 H         0.197439         2.393988        -1.042911
 H        -0.986241         4.548484         0.908204
 H        -1.545675         4.131084        -0.667124
 H        -3.207526         3.414340         1.007017
 H        -3.034168         0.797957         0.150489
