19
Iteration:  1285charge 0 multiplicity 1
 O        -3.062563         1.816239         2.989258
 C        -2.184098         1.952344         1.907084
 C        -0.749804         1.492526         2.076814
 C        -0.669554         1.318247         0.512179
 O        -0.382096        -0.047316         0.184730
 C        -0.081829         2.489423        -0.218226
 C        -1.052648         3.745936         0.349786
 C        -2.368773         2.938054         0.816544
 C        -2.184469         1.566986         0.480775
 H        -2.885376         0.881675         3.246294
 H        -0.102706         2.321005         2.498817
 H        -0.628823         0.499784         2.448145
 H        -1.127242        -0.376147        -0.379790
 H         0.906919         2.747565         0.207325
 H         0.031801         2.565188        -1.321667
 H        -0.697878         4.104792         1.317205
 H        -1.120353         4.595716        -0.315812
 H        -3.436797         3.186257         0.832993
 H        -2.909854         1.009106        -0.051594
