19
Iteration:   875charge 0 multiplicity 1
 O        -3.224266         2.046966         3.018794
 C        -2.201401         2.066419         2.032292
 C        -0.652568         1.298053         2.073164
 C        -0.718268         1.193697         0.539332
 O        -0.046645         0.051115        -0.070035
 C        -0.145852         2.435113        -0.113274
 C        -1.123665         3.710826         0.362470
 C        -2.332451         2.917637         0.874179
 C        -2.306144         1.472090         0.550823
 H        -3.961357         1.453852         2.653898
 H         0.068801         1.975594         2.620405
 H        -0.695738         0.310077         2.434954
 H        -0.665144        -0.299006        -0.716103
 H         0.961002         2.613157        -0.018331
 H        -0.061889         2.330353        -1.262849
 H        -0.571088         4.096746         1.254335
 H        -1.424355         4.372005        -0.462132
 H        -3.235132         3.502473         0.934086
 H        -2.889154         0.836631        -0.076491
