19
Iteration:  4093
 O        -3.133238         1.615637         2.842731
 C        -2.157506         1.986119         1.947316
 C        -0.717404         1.510764         2.133546
 C        -0.695285         1.333617         0.509068
 O        -0.257958         0.021941         0.214700
 C        -0.167751         2.570545        -0.286570
 C        -0.997047         3.661151         0.352173
 C        -2.339471         3.017719         0.804263
 C        -2.275166         1.509816         0.586986
 H        -2.897792         1.757533         3.776827
 H         0.074593         2.032291         2.609475
 H        -0.912020         0.605983         2.648610
 H        -0.790329        -0.308669        -0.501183
 H         0.934882         2.624296        -0.232660
 H        -0.491844         2.456764        -1.323135
 H        -0.450909         4.158602         1.206598
 H        -1.153546         4.609770        -0.205962
 H        -3.277305         3.589419         0.709818
 H        -3.158111         1.066484         0.192002
