19
Iteration:  4127charge 0 multiplicity 1
 O        -3.208711         1.762236         2.980367
 C        -2.181584         1.810889         1.974000
 C        -0.672339         1.460094         2.059669
 C        -0.729879         1.279195         0.501938
 O        -0.227937         0.073529         0.107207
 C        -0.108644         2.570561        -0.146708
 C        -1.055123         3.712450         0.322031
 C        -2.279747         2.910992         0.927616
 C        -2.267496         1.499142         0.478731
 H        -3.077942         2.711126         3.348962
 H        -0.084664         2.212787         2.452387
 H        -0.742530         0.587097         2.721854
 H        -0.696641        -0.242114        -0.673222
 H         1.035762         2.614236         0.005886
 H        -0.258924         2.527673        -1.197094
 H        -0.448024         4.457699         0.904475
 H        -1.544801         4.037465        -0.605576
 H        -3.201925         3.439374         0.858981
 H        -3.034453         1.229067        -0.254783
