19
Iteration:    55charge 0 multiplicity 1
 O        -3.159699         1.937546         2.997685
 C        -2.151267         1.985246         1.951041
 C        -0.779675         1.535809         2.137393
 C        -0.691170         1.279212         0.502830
 O        -0.113255         0.067201         0.169114
 C        -0.177495         2.519766        -0.288691
 C        -1.112648         3.675936         0.304852
 C        -2.330500         2.849064         0.804861
 C        -2.250937         1.414004         0.442991
 H        -3.310052         1.017645         3.207412
 H        -0.068058         2.016960         2.638499
 H        -0.799236         0.540762         2.571774
 H        -0.253345        -0.594565         0.852981
 H         0.877619         2.760860        -0.026459
 H        -0.401325         2.372984        -1.411526
 H        -0.620365         4.189499         1.130760
 H        -1.407567         4.364450        -0.467701
 H        -3.312578         3.342148         0.894548
 H        -2.987733         0.694106         0.036057
