19
Iteration:  1612charge 0 multiplicity 1
 O        -3.010539         1.927624         2.988282
 C        -2.108351         1.966964         1.916113
 C        -0.725063         1.456064         2.107123
 C        -0.638831         1.211475         0.564532
 O        -0.386961        -0.065243        -0.006844
 C        -0.031908         2.539315        -0.072737
 C        -1.229050         3.682764         0.335751
 C        -2.392272         2.964622         0.819844
 C        -2.261445         1.502103         0.490038
 H        -3.861892         1.413688         2.706219
 H        -0.083180         2.235783         2.667758
 H        -0.518314         0.488316         2.370313
 H         0.561880        -0.311744         0.194481
 H         0.896841         2.976664         0.270746
 H         0.106810         2.385627        -1.181151
 H        -0.907433         4.387728         1.160029
 H        -1.326907         4.368806        -0.494791
 H        -3.394908         3.315824         0.988577
 H        -3.050873         0.938130         0.047439
