19
Iteration:   271charge 0 multiplicity 1
 O        -3.049538         1.751692         2.981101
 C        -2.253023         2.001924         1.968441
 C        -0.858553         1.462595         2.069366
 C        -0.730811         1.290943         0.528001
 O        -0.167957         0.026599         0.127500
 C        -0.024048         2.507806        -0.072594
 C        -1.078541         3.650444         0.285800
 C        -2.356584         2.977840         0.822911
 C        -2.254945         1.530557         0.406182
 H        -3.543515         2.552667         3.291744
 H        -0.208636         2.265665         2.448850
 H        -0.759932         0.613742         2.697275
 H        -0.833611        -0.608537        -0.212927
 H         0.999314         2.573437         0.298447
 H         0.071968         2.234819        -1.130674
 H        -0.571893         4.115172         1.162428
 H        -1.275689         4.282540        -0.608046
 H        -3.385513         3.369008         0.830424
 H        -2.906941         0.957795        -0.248520
