19
Iteration:  4796charge 0 multiplicity 1
 O        -3.118589         1.823441         3.011680
 C        -2.213585         1.835244         1.940579
 C        -0.718844         1.539999         1.991845
 C        -0.691230         1.330415         0.440233
 O        -0.235068        -0.015464         0.225249
 C        -0.188784         2.512911        -0.229364
 C        -1.022172         3.708762         0.451141
 C        -2.308018         2.984257         0.823694
 C        -2.347984         1.511907         0.449793
 H        -3.003134         0.966557         3.443167
 H         0.073399         2.071506         2.596874
 H        -0.686416         0.384984         2.461297
 H        -0.012851        -0.114589        -0.729906
 H         0.876309         2.659735        -0.112205
 H        -0.360713         2.601720        -1.352356
 H        -0.454046         4.259275         1.338288
 H        -1.208347         4.568631        -0.221213
 H        -3.269384         3.516058         0.913857
 H        -2.993063         0.954693        -0.175336
