19
Iteration:   482
 O        -3.092646         1.875433         3.036603
 C        -2.231973         2.009888         1.996098
 C        -0.826827         1.284303         1.982099
 C        -0.814960         1.276692         0.459080
 O        -0.059321         0.007196         0.187572
 C        -0.102051         2.521809        -0.036274
 C        -1.060652         3.678449         0.394723
 C        -2.359459         2.942350         0.763066
 C        -2.329370         1.569954         0.369062
 H        -3.409130         2.751843         3.348904
 H         0.202128         1.602636         2.398833
 H        -0.871534         0.265373         2.190133
 H        -0.189078        -0.324119        -0.736941
 H         0.879714         2.673827         0.404601
 H         0.116605         2.445598        -1.095723
 H        -0.588791         4.386425         1.159233
 H        -1.285597         4.171400        -0.537304
 H        -3.282130         3.504166         0.607378
 H        -3.015524         0.875283        -0.088361
