19
Iteration:  2005
 O        -3.165153         1.803936         3.027985
 C        -2.195831         2.000434         1.996119
 C        -0.701458         1.504420         2.026027
 C        -0.744262         1.303475         0.539383
 O        -0.200795         0.103677         0.010198
 C        -0.143498         2.471546        -0.223520
 C        -1.093616         3.589677         0.278094
 C        -2.297118         2.957826         0.845107
 C        -2.287885         1.508315         0.539986
 H        -2.708578         1.376953         3.788001
 H        -0.056157         2.184392         2.635059
 H        -0.606135         0.536069         2.583032
 H        -0.242372        -0.642449         0.621382
 H         0.916060         2.608805        -0.101317
 H        -0.323898         2.149022        -1.291804
 H        -0.420143         4.149705         0.968011
 H        -1.343066         4.378995        -0.402482
 H        -3.195031         3.564582         0.875668
 H        -3.184964         1.027189         0.053567
