19
Iteration:   739charge 0 multiplicity 1
 O        -3.257061         1.924238         3.001437
 C        -2.247507         1.904404         1.993443
 C        -0.718088         1.446655         2.195910
 C        -0.646732         1.269174         0.490740
 O        -0.303003        -0.016564        -0.045127
 C        -0.121931         2.530263        -0.247278
 C        -0.998197         3.689064         0.491943
 C        -2.233580         2.970260         0.837780
 C        -2.196981         1.409496         0.531665
 H        -4.181759         2.222748         2.773930
 H        -0.051350         2.053220         2.753030
 H        -0.657012         0.380641         2.571407
 H         0.453718         0.015510        -0.675831
 H         0.943792         2.716026        -0.143847
 H        -0.283389         2.512080        -1.305504
 H        -0.426682         4.225271         1.255002
 H        -1.184766         4.380189        -0.392587
 H        -3.274908         3.310550         0.703271
 H        -3.003250         0.902813        -0.001629
