19
Iteration:  1383charge 0 multiplicity 1
 O        -3.057126         2.040458         3.021330
 C        -2.130759         1.903349         1.896604
 C        -0.721640         1.411074         2.093667
 C        -0.731209         1.224048         0.549610
 O        -0.318963         0.029423        -0.033211
 C        -0.107436         2.514746        -0.019106
 C        -1.093144         3.654121         0.373361
 C        -2.405743         2.888402         0.714813
 C        -2.347331         1.461903         0.498869
 H        -2.928466         1.303368         3.656418
 H        -0.017881         2.117582         2.654882
 H        -0.608075         0.424540         2.431343
 H         0.632857         0.166571        -0.136920
 H         0.833253         2.816123         0.433229
 H         0.064824         2.303353        -1.098916
 H        -0.710816         4.304278         1.205024
 H        -1.240606         4.299865        -0.494346
 H        -3.306520         3.523344         0.837614
 H        -2.844911         0.811759        -0.235026
