19
Iteration:  1656
 O        -3.112346         1.766551         3.056457
 C        -2.252897         1.963300         1.961729
 C        -0.774737         1.522822         2.116512
 C        -0.722454         1.296129         0.452428
 O        -0.197776        -0.007825         0.116796
 C        -0.142850         2.460231        -0.363488
 C        -0.963386         3.620951         0.385551
 C        -2.337568         3.059807         0.838572
 C        -2.329162         1.574345         0.548748
 H        -3.829734         1.058405         2.845802
 H         0.048826         2.239126         2.512205
 H        -0.870313         0.715678         2.783955
 H         0.789839        -0.018155         0.213595
 H         0.941972         2.405608        -0.343114
 H        -0.467410         2.230467        -1.424656
 H        -0.402400         4.060304         1.263904
 H        -1.198689         4.518219        -0.195015
 H        -3.284875         3.589652         0.665997
 H        -3.070000         0.968189        -0.008987
