19
Iteration:  4589charge 0 multiplicity 1
 O        -3.117837         1.824767         3.103806
 C        -2.206163         1.915806         1.943931
 C        -0.759196         1.462994         2.125995
 C        -0.668397         1.335176         0.566480
 O        -0.325131         0.008440        -0.023874
 C        -0.165188         2.513816        -0.194040
 C        -1.051404         3.756458         0.269875
 C        -2.291866         2.964616         0.871075
 C        -2.212470         1.466412         0.501197
 H        -3.458805         0.871190         3.002188
 H        -0.190594         2.220822         2.712275
 H        -0.676304         0.409789         2.599836
 H         0.618648        -0.208131        -0.013773
 H         0.932980         2.732015         0.081230
 H        -0.334278         2.304803        -1.341709
 H        -0.568022         4.464788         1.085799
 H        -1.424313         4.322834        -0.606179
 H        -3.159034         3.522374         0.604060
 H        -2.980649         0.925502        -0.050106
