19
Iteration:  4027
 O        -3.146016         1.856815         3.029403
 C        -2.179765         1.894690         1.994047
 C        -0.764152         1.280741         2.109225
 C        -0.666698         1.317481         0.589721
 O        -0.263404         0.113157         0.052360
 C        -0.184656         2.545697        -0.117452
 C        -1.087867         3.730005         0.246717
 C        -2.298654         2.899478         0.834932
 C        -2.202071         1.452480         0.491779
 H        -3.255666         2.869792         3.046467
 H         0.051653         1.686469         2.651671
 H        -0.833340         0.262134         2.284433
 H         0.379915         0.096883        -0.699334
 H         0.887685         2.667791         0.070944
 H        -0.271148         2.424602        -1.185380
 H        -0.784992         4.318235         1.123356
 H        -1.230598         4.357728        -0.681395
 H        -3.377593         3.241065         0.738321
 H        -2.991105         0.982111        -0.072597
