19
Iteration:  3142charge 0 multiplicity 1
 O        -3.099348         1.645426         2.850087
 C        -2.076941         1.976331         1.986630
 C        -0.699375         1.476582         1.984179
 C        -0.793779         1.295180         0.449901
 O        -0.162362        -0.060729         0.328570
 C        -0.243069         2.515038        -0.318802
 C        -1.077889         3.707188         0.252595
 C        -2.317114         3.074913         0.992825
 C        -2.315289         1.572392         0.615914
 H        -3.134859         2.235835         3.650769
 H         0.161406         2.077305         2.451850
 H        -0.939920         0.585708         2.527962
 H        -0.235207        -0.400355        -0.563081
 H         0.788140         2.830546        -0.041217
 H        -0.327933         2.302336        -1.444482
 H        -0.465237         4.433329         0.805736
 H        -1.576257         4.299068        -0.515630
 H        -3.234215         3.683979         0.797502
 H        -3.142352         1.051739         0.282177
