19
Iteration:  1104charge 0 multiplicity 1
 O        -3.241862         1.728697         2.907124
 C        -2.130002         1.909001         2.030049
 C        -0.701202         1.443302         2.139997
 C        -0.710204         1.344692         0.545329
 O        -0.222195         0.000199         0.058661
 C        -0.128967         2.549214        -0.245172
 C        -1.021045         3.671769         0.203329
 C        -2.283409         3.017634         0.963664
 C        -2.236335         1.522801         0.578026
 H        -3.501900         2.607919         3.359725
 H         0.206874         2.098984         2.462086
 H        -0.445628         0.415043         2.461530
 H        -0.961645        -0.556919        -0.145665
 H         0.982882         2.590927        -0.180831
 H        -0.393975         2.302931        -1.278459
 H        -0.610241         4.359142         0.972768
 H        -1.586397         4.229856        -0.585735
 H        -3.178663         3.641984         0.999892
 H        -3.127159         1.017891         0.262654
