19
Iteration:  2556
 O        -2.995210         1.877371         3.197436
 C        -2.239730         1.990604         2.008849
 C        -0.763212         1.507253         2.047480
 C        -0.794241         1.332014         0.455447
 O        -0.223424         0.125595        -0.077722
 C        -0.120913         2.428011        -0.204864
 C        -1.043446         3.556938         0.281697
 C        -2.335352         2.939380         0.885323
 C        -2.301405         1.521957         0.478241
 H        -3.073650         0.968138         3.521483
 H         0.041173         2.139700         2.494059
 H        -0.612032         0.559996         2.563403
 H        -0.546381        -0.668043         0.430975
 H         0.930439         2.554378         0.152068
 H        -0.050032         2.098004        -1.252613
 H        -0.536368         4.315173         0.949124
 H        -1.509440         4.257080        -0.459025
 H        -3.394946         3.251293         0.718736
 H        -3.147139         1.053408        -0.099124
