19
Iteration:  3132
 O        -3.112151         1.604212         2.968519
 C        -2.187341         1.946637         1.980529
 C        -0.674819         1.448690         2.094709
 C        -0.737517         1.260573         0.453537
 O        -0.167811        -0.001015         0.311763
 C        -0.243676         2.551474        -0.325005
 C        -1.100588         3.715765         0.192960
 C        -2.204557         3.058146         0.918688
 C        -2.388348         1.605956         0.533012
 H        -2.977137         2.363922         3.649334
 H         0.092993         2.159483         2.564087
 H        -0.620162         0.482973         2.593645
 H        -0.456714        -0.439930        -0.476742
 H         0.854145         2.583937        -0.114411
 H        -0.211787         2.510573        -1.442017
 H        -0.433797         4.378297         0.774350
 H        -1.482130         4.271717        -0.660887
 H        -3.206061         3.548359         0.839125
 H        -3.216546         1.308576        -0.019912
