19
Iteration:  1587charge 0 multiplicity 1
 O        -3.124662         1.954537         3.042209
 C        -2.101969         1.998754         1.989911
 C        -0.700342         1.272396         2.112222
 C        -0.789358         1.209026         0.553692
 O        -0.328484         0.064394        -0.071867
 C        -0.067645         2.562993        -0.034995
 C        -1.152136         3.712174         0.188263
 C        -2.309469         2.998395         0.786181
 C        -2.216227         1.419114         0.615105
 H        -3.707467         1.147255         2.839334
 H         0.104296         1.852999         2.589574
 H        -0.721852         0.207585         2.510035
 H         0.527375         0.224289         0.313819
 H         0.869971         2.803189         0.498606
 H         0.202371         2.414766        -1.107195
 H        -0.817259         4.667757         0.564356
 H        -1.469194         3.926534        -0.823324
 H        -3.288491         3.493785         0.734329
 H        -2.987555         0.768524         0.193792
