19
Iteration:  2850charge 0 multiplicity 1
 O        -2.971157         1.906170         3.057362
 C        -2.163348         1.956773         1.960452
 C        -0.696420         1.405922         2.164504
 C        -0.738378         1.215944         0.546708
 O        -0.324157         0.030083        -0.088124
 C        -0.158301         2.570968        -0.110578
 C        -1.106308         3.694829         0.282357
 C        -2.368885         2.914190         0.769330
 C        -2.295578         1.469699         0.600068
 H        -3.763005         1.501348         2.770177
 H         0.124193         2.062792         2.503398
 H        -0.765191         0.424933         2.565496
 H         0.509245         0.289009        -0.472910
 H         0.876429         2.723864         0.317176
 H         0.015425         2.328804        -1.185687
 H        -0.635227         4.160425         1.171237
 H        -1.474608         4.413295        -0.438129
 H        -3.333344         3.474181         0.885173
 H        -3.082131         0.779394         0.185604
