19
Iteration:  3829charge 0 multiplicity 1
 O        -3.163716         1.922902         2.971699
 C        -2.180001         1.895784         1.957234
 C        -0.663895         1.364079         2.133322
 C        -0.718786         1.237218         0.553199
 O        -0.195492         0.030477        -0.071896
 C        -0.130807         2.533179         0.014950
 C        -1.135788         3.645914         0.189045
 C        -2.341847         2.960305         0.925837
 C        -2.283881         1.445712         0.576984
 H        -3.169879         2.785488         3.358999
 H         0.156133         2.136071         2.436513
 H        -0.707097         0.447905         2.626422
 H        -0.013170         0.298716        -0.983119
 H         0.804557         2.652372         0.489540
 H         0.092789         2.440747        -1.061855
 H        -0.781455         4.487240         0.736105
 H        -1.355004         4.041230        -0.813953
 H        -3.312606         3.384741         0.866621
 H        -3.088772         0.953036         0.107217
