19
Iteration:   302charge 0 multiplicity 1
 O        -3.195213         1.980348         2.980571
 C        -2.229188         1.877051         2.004229
 C        -0.776162         1.357304         2.198752
 C        -0.687860         1.268461         0.526035
 O        -0.154286         0.092295        -0.119382
 C        -0.088683         2.542839        -0.105872
 C        -1.069199         3.692139         0.291215
 C        -2.277938         2.890411         0.770172
 C        -2.234163         1.402221         0.624835
 H        -4.011306         2.275561         2.567093
 H        -0.168043         2.187449         2.643847
 H        -0.641769         0.356189         2.775853
 H        -0.658112        -0.639083         0.272751
 H         0.952477         2.736531         0.220575
 H        -0.110927         2.347175        -1.178210
 H        -0.574561         4.270747         1.159317
 H        -1.140920         4.645647        -0.376291
 H        -3.292684         3.302612         0.760228
 H        -2.976788         0.868414         0.021267
