19
Iteration:  4366charge 0 multiplicity 1
 O        -3.092272         2.101932         2.993059
 C        -2.185121         1.864078         1.992848
 C        -0.703475         1.368514         2.041526
 C        -0.778254         1.270953         0.501015
 O        -0.192634         0.054551        -0.087782
 C        -0.165783         2.563520        -0.010496
 C        -1.136557         3.631134         0.406734
 C        -2.271662         2.837941         0.870843
 C        -2.346217         1.397325         0.490502
 H        -3.661678         1.281290         3.187059
 H         0.000337         2.169463         2.419250
 H        -0.536723         0.424835         2.494038
 H         0.745364         0.167851        -0.194080
 H         0.873012         2.761431         0.182733
 H        -0.122163         2.488514        -1.152994
 H        -0.805127         4.420265         1.080197
 H        -1.315663         4.204407        -0.507868
 H        -3.168691         3.459204         0.988290
 H        -2.988908         0.798594        -0.134658
