19
Iteration:  3213
 O        -3.033582         1.965228         3.150195
 C        -2.212443         1.953335         1.991787
 C        -0.724540         1.391548         2.041242
 C        -0.765416         1.222811         0.502632
 O        -0.132159         0.008493         0.020511
 C        -0.149662         2.526426        -0.123495
 C        -1.186790         3.588238         0.274553
 C        -2.387054         2.887108         0.819534
 C        -2.339209         1.466299         0.502937
 H        -3.233346         2.946570         3.241086
 H         0.073474         2.016364         2.384401
 H        -0.545775         0.330399         2.396474
 H         0.544899         0.418174        -0.526964
 H         0.827681         2.736809         0.322448
 H        -0.047801         2.568430        -1.194563
 H        -0.648141         4.240662         0.993789
 H        -1.306425         4.249530        -0.607528
 H        -3.347804         3.412643         0.654443
 H        -3.066940         0.938289        -0.133337
