19
Iteration:  1631
 O        -3.032278         1.863309         3.068032
 C        -2.228822         1.867910         1.917651
 C        -0.719870         1.539524         2.056304
 C        -0.769287         1.313209         0.492752
 O        -0.375929         0.052191         0.103801
 C        -0.160221         2.563178        -0.138737
 C        -0.969422         3.670312         0.353520
 C        -2.287916         2.897309         0.811834
 C        -2.272617         1.440785         0.436451
 H        -3.889596         1.338514         2.972952
 H         0.051149         2.271946         2.406076
 H        -0.659354         0.629174         2.768308
 H         0.538377        -0.205765         0.235474
 H         0.889493         2.529845         0.168465
 H        -0.232002         2.468560        -1.253947
 H        -0.639803         4.265533         1.190590
 H        -1.220948         4.353944        -0.441205
 H        -3.277375         3.303650         0.681069
 H        -2.714922         0.770590        -0.269060
