19
Iteration:  3759charge 0 multiplicity 1
 O        -3.039894         1.808409         3.035585
 C        -2.197533         1.951132         1.979046
 C        -0.734061         1.414679         2.003076
 C        -0.783466         1.241531         0.482759
 O        -0.090740         0.063042         0.107809
 C        -0.158278         2.536328        -0.084226
 C        -1.110100         3.714961         0.257597
 C        -2.355151         2.924200         0.870519
 C        -2.353418         1.479877         0.464441
 H        -3.084300         2.691824         3.440197
 H         0.120661         2.054199         2.370381
 H        -0.600620         0.324846         2.395920
 H        -0.838233        -0.539515         0.093444
 H         0.868791         2.776440         0.325636
 H        -0.099590         2.443980        -1.175533
 H        -0.455504         4.466668         0.803622
 H        -1.519500         4.232822        -0.661214
 H        -3.364736         3.435187         0.753953
 H        -3.205571         0.890506         0.046122
