19
Iteration:  3302
 O        -3.002919         1.762639         3.002710
 C        -2.116588         1.934612         1.974131
 C        -0.630726         1.583967         2.048529
 C        -0.729469         1.248575         0.531546
 O        -0.202714        -0.001241         0.120656
 C        -0.163559         2.438967        -0.180261
 C        -1.149471         3.639785         0.277572
 C        -2.402371         3.014870         0.843093
 C        -2.333177         1.496800         0.551428
 H        -3.892427         2.043819         2.667504
 H         0.004529         2.362512         2.444783
 H        -0.601505         0.651470         2.721318
 H        -0.866224        -0.232054        -0.564588
 H         0.836368         2.691619         0.167418
 H        -0.059154         2.533073        -1.262459
 H        -0.673623         4.281430         1.113914
 H        -1.271516         4.392287        -0.566566
 H        -3.330011         3.593144         1.147968
 H        -3.120316         1.076131        -0.026657
