19
Iteration:  4452charge 0 multiplicity 1
 O        -3.175509         1.784464         2.928272
 C        -2.127814         1.916235         1.969241
 C        -0.613842         1.574683         1.972847
 C        -0.680289         1.279784         0.463973
 O        -0.395425        -0.003042         0.133403
 C        -0.102664         2.547664        -0.214489
 C        -1.036076         3.691276         0.451635
 C        -2.350793         2.929364         0.936252
 C        -2.316289         1.507523         0.494364
 H        -3.212288         0.815985         3.041497
 H         0.162384         2.349333         2.214998
 H        -0.514166         0.736951         2.553403
 H         0.595530        -0.096044         0.139249
 H         0.864696         2.634965         0.190122
 H        -0.056050         2.455347        -1.345680
 H        -0.582031         4.386973         1.172518
 H        -1.348188         4.276942        -0.460855
 H        -3.406489         3.411729         0.879024
 H        -3.224878         1.043428         0.106530
