19
Iteration:   196charge 0 multiplicity 1
 O        -3.323019         1.910515         2.888683
 C        -2.213398         1.939192         1.985301
 C        -0.744757         1.484312         2.138762
 C        -0.662233         1.211680         0.604395
 O        -0.225438         0.076323         0.019468
 C        -0.217019         2.425981        -0.204477
 C        -0.987610         3.753656         0.318345
 C        -2.282134         2.890390         0.796689
 C        -2.198004         1.421723         0.613963
 H        -3.153610         1.535828         3.749991
 H         0.034234         2.271663         2.598561
 H        -0.420556         0.762840         2.826287
 H         0.676867         0.270037        -0.291569
 H         0.904794         2.536412        -0.189925
 H        -0.495944         2.304815        -1.309915
 H        -0.428138         4.367434         1.031375
 H        -0.991348         4.336288        -0.591951
 H        -3.303468         3.313334         0.916179
 H        -2.978944         0.864635         0.053881
