19
Iteration:  2571charge 0 multiplicity 1
 O        -3.083973         1.878120         3.182528
 C        -2.217134         1.868649         2.012521
 C        -0.682588         1.608194         2.010668
 C        -0.749357         1.249679         0.472475
 O        -0.351028         0.037101        -0.043097
 C        -0.126351         2.521072        -0.260948
 C        -1.008518         3.666091         0.334513
 C        -2.305994         2.926342         0.857488
 C        -2.300402         1.432088         0.503147
 H        -2.948727         0.942244         3.599693
 H        -0.161192         2.494061         2.198729
 H        -0.419832         0.678455         2.555579
 H        -0.255355        -0.606237         0.713519
 H         0.922628         2.646040        -0.003770
 H        -0.328833         2.670780        -1.337872
 H        -0.481255         4.161921         1.129035
 H        -1.179684         4.386909        -0.490137
 H        -3.164232         3.616687         0.830619
 H        -2.925412         0.979232        -0.223424
