19
Iteration:  2689charge 0 multiplicity 1
 O        -2.873047         1.963998         3.058662
 C        -2.072177         1.987798         1.989519
 C        -0.759195         1.243203         2.068581
 C        -0.718911         1.234034         0.460830
 O        -0.314849        -0.039862         0.055660
 C        -0.135096         2.681206        -0.090524
 C        -1.190453         3.784461         0.262487
 C        -2.345982         2.924100         0.783619
 C        -2.338817         1.431809         0.585030
 H        -3.733657         1.735767         2.714005
 H         0.102036         1.624007         2.699188
 H        -0.951968         0.137705         2.211506
 H        -0.356298        -0.058178        -0.923537
 H         0.804511         2.739458         0.481662
 H         0.097456         2.571111        -1.151473
 H        -0.933174         4.419795         1.147336
 H        -1.597025         4.499375        -0.539924
 H        -3.335975         3.318161         1.084905
 H        -2.931032         0.668633         0.101618
