19
Iteration:  4737charge 0 multiplicity 1
 O        -3.128847         1.925938         3.065192
 C        -2.168298         1.887540         2.011946
 C        -0.798549         1.236160         2.144338
 C        -0.658632         1.292643         0.620371
 O        -0.254665         0.158118        -0.006925
 C        -0.083649         2.558009        -0.127174
 C        -1.099104         3.698404         0.139861
 C        -2.294704         2.894216         0.872350
 C        -2.227508         1.515415         0.546508
 H        -3.585890         1.085284         3.093187
 H         0.001290         1.838863         2.555872
 H        -0.914795         0.296114         2.630974
 H        -0.462298         0.347851        -0.912224
 H         0.931483         2.936537         0.232874
 H         0.021124         2.419609        -1.171618
 H        -0.617804         4.471888         0.616532
 H        -1.629018         4.073387        -0.782217
 H        -3.236039         3.306807         0.556003
 H        -2.981032         0.774586         0.124255
