19
Iteration:  2173
 O        -3.153054         1.953743         3.076600
 C        -2.187912         1.909593         2.000389
 C        -0.617259         1.376000         2.117004
 C        -0.794215         1.285201         0.498779
 O        -0.245103         0.134215        -0.098289
 C        -0.127476         2.483003        -0.173889
 C        -1.080003         3.664868         0.252625
 C        -2.327854         2.907844         0.898136
 C        -2.284054         1.464517         0.529926
 H        -2.778279         1.432923         3.846400
 H         0.255878         2.046732         2.495555
 H        -0.638217         0.406055         2.647318
 H        -0.466486        -0.658024         0.410586
 H         0.956656         2.481702         0.113516
 H        -0.167141         2.264246        -1.255500
 H        -0.610144         4.502899         0.822623
 H        -1.566858         4.259676        -0.569092
 H        -3.184518         3.585349         0.945822
 H        -2.988891         1.064494        -0.228794
