19
Iteration:  4765charge 0 multiplicity 1
 O        -3.131677         1.831412         2.942034
 C        -2.105618         1.939603         1.983754
 C        -0.673664         1.503778         2.088570
 C        -0.709329         1.266484         0.505835
 O        -0.264630        -0.014051         0.042898
 C        -0.140558         2.494824        -0.088462
 C        -1.138825         3.699734         0.285503
 C        -2.278505         2.952170         0.878392
 C        -2.336284         1.540137         0.571382
 H        -3.354903         0.853060         2.904022
 H         0.167716         2.101705         2.546021
 H        -0.785329         0.503982         2.707858
 H         0.025834         0.144951        -0.864535
 H         0.795593         2.679726         0.410088
 H         0.052959         2.621750        -1.184800
 H        -0.596682         4.319993         1.080629
 H        -1.543415         4.191026        -0.587372
 H        -3.228234         3.531103         0.768228
 H        -3.179759         1.091244         0.127706
