19
Iteration:   264charge 0 multiplicity 1
 O        -3.056342         1.713819         2.987888
 C        -2.188196         1.967574         1.857481
 C        -0.854698         1.467754         2.065749
 C        -0.716734         1.257690         0.537756
 O        -0.154205        -0.003824         0.184048
 C        -0.081542         2.511885        -0.103228
 C        -1.040307         3.697554         0.290592
 C        -2.357663         2.994627         0.796007
 C        -2.317864         1.547471         0.447530
 H        -3.399681         2.553804         3.440719
 H        -0.258115         2.263537         2.579880
 H        -0.701766         0.576724         2.657007
 H        -0.862782        -0.543254        -0.182060
 H         0.864289         2.617141         0.476313
 H         0.168517         2.448952        -1.199801
 H        -0.624214         4.301187         1.083690
 H        -1.211091         4.318201        -0.537179
 H        -3.373325         3.444580         0.772677
 H        -3.120647         1.192062        -0.182705
