19
Iteration:  3333charge 0 multiplicity 1
 O        -3.007764         1.711005         3.106210
 C        -2.162714         1.923883         1.935223
 C        -0.771422         1.503908         2.060274
 C        -0.667258         1.266814         0.503660
 O        -0.261151        -0.006319         0.307053
 C        -0.234796         2.637869        -0.433359
 C        -1.017059         3.750256         0.341652
 C        -2.285361         2.915598         0.786712
 C        -2.241272         1.467719         0.507083
 H        -3.893420         2.013130         2.818860
 H        -0.226931         2.181200         2.686584
 H        -0.816499         0.431788         2.496922
 H        -0.732133        -0.205235        -0.521159
 H         0.839905         2.774461        -0.584824
 H        -0.685045         2.517878        -1.417315
 H        -0.770927         4.209638         1.294774
 H        -1.190586         4.618765        -0.307621
 H        -3.234457         3.501188         0.884985
 H        -2.992846         0.958275        -0.001630
