19
Iteration:  1966charge 0 multiplicity 1
 O        -2.944826         2.041709         3.105565
 C        -2.141488         1.921274         1.932352
 C        -0.779707         1.393237         2.036674
 C        -0.646897         1.258697         0.510897
 O        -0.303752        -0.044694         0.000943
 C        -0.121144         2.580254        -0.023486
 C        -1.262995         3.684417         0.319111
 C        -2.339061         2.905486         0.755914
 C        -2.294326         1.472399         0.422873
 H        -3.280762         1.106777         3.267211
 H         0.141601         1.815719         2.499500
 H        -0.844995         0.311411         2.360401
 H         0.384679        -0.333226         0.632567
 H         0.844628         2.842714         0.499843
 H         0.111308         2.523076        -1.097249
 H        -0.953586         4.445825         1.079774
 H        -1.658807         4.249207        -0.572792
 H        -3.290259         3.440091         0.735305
 H        -3.027989         0.941639        -0.201593
