19
Iteration:  1566
 O        -3.128463         1.978438         3.044878
 C        -2.159061         1.859693         2.029211
 C        -0.809753         1.342610         2.136089
 C        -0.664488         1.326303         0.592547
 O        -0.244859         0.104391        -0.112826
 C        -0.091421         2.525564        -0.033400
 C        -1.113477         3.564863         0.059980
 C        -2.300182         2.945111         0.933638
 C        -2.354285         1.513113         0.525196
 H        -3.271676         1.064371         3.459947
 H        -0.012623         1.866475         2.723351
 H        -1.036026         0.372069         2.565484
 H         0.771673         0.190476        -0.083397
 H         0.875303         2.729634         0.435139
 H         0.222461         2.238337        -1.063663
 H        -0.526776         4.413379         0.455012
 H        -1.508149         3.944080        -0.858048
 H        -3.068565         3.714634         1.016891
 H        -3.147291         1.098088        -0.121392
