19
Iteration:   119charge 0 multiplicity 1
 O        -3.023697         1.835192         3.091485
 C        -2.258509         1.984043         1.911631
 C        -0.777406         1.527834         2.094501
 C        -0.656454         1.258565         0.572689
 O        -0.107775         0.087394         0.040006
 C        -0.029650         2.464995        -0.077270
 C        -1.182236         3.666648         0.174440
 C        -2.379076         2.909562         0.818363
 C        -2.300187         1.439889         0.474671
 H        -3.874850         2.265082         2.942071
 H        -0.021582         2.174449         2.852951
 H        -0.900470         0.464623         2.442374
 H        -0.836668        -0.544817         0.256656
 H         0.873294         2.798345         0.490093
 H         0.044998         2.238280        -1.197196
 H        -0.731461         4.357948         0.880161
 H        -1.481378         4.154342        -0.755793
 H        -3.359271         3.340539         0.627472
 H        -3.170668         0.849612         0.092591
