19
Iteration:  3727charge 0 multiplicity 1
 O        -3.199413         1.730427         2.985952
 C        -2.158496         1.942017         2.033639
 C        -0.705014         1.608417         2.189809
 C        -0.694452         1.305765         0.552428
 O        -0.190622         0.037580         0.095791
 C        -0.245755         2.504664        -0.334771
 C        -0.980014         3.637773         0.311207
 C        -2.323867         2.900624         0.853164
 C        -2.256384         1.482034         0.503141
 H        -3.218789         2.455777         3.714146
 H        -0.054862         2.505832         2.451624
 H        -0.459778         0.562769         2.621720
 H        -0.615960        -0.230372        -0.770645
 H         0.861493         2.676218        -0.315574
 H        -0.486345         2.342963        -1.384396
 H        -0.240596         4.017545         1.081448
 H        -1.361405         4.492161        -0.301768
 H        -3.353574         3.357413         0.610518
 H        -3.039981         0.825581         0.050572
