19
Iteration:  2815
 O        -3.103640         1.781667         3.055122
 C        -2.243555         1.931769         2.005285
 C        -0.661829         1.421200         2.012282
 C        -0.801224         1.323762         0.514093
 O        -0.255813         0.051213         0.006852
 C        -0.175283         2.493142        -0.270168
 C        -1.049909         3.646421         0.270000
 C        -2.281791         3.028616         0.951498
 C        -2.309159         1.560430         0.532818
 H        -2.978121         1.132782         3.700963
 H         0.020834         2.131218         2.440370
 H        -0.467497         0.519350         2.520666
 H         0.416682        -0.349683         0.552651
 H         0.857185         2.715886         0.061429
 H        -0.219365         2.219741        -1.340280
 H        -0.443727         4.365622         0.866021
 H        -1.433586         4.322364        -0.517749
 H        -3.224480         3.468083         0.951275
 H        -3.091276         1.164236        -0.057994
