19
Iteration:  2256
 O        -3.131053         1.926281         3.085607
 C        -2.116852         1.859078         2.100125
 C        -0.667076         1.475421         2.149947
 C        -0.738012         1.340244         0.419900
 O        -0.328286        -0.030310         0.021340
 C        -0.174478         2.517769        -0.340248
 C        -1.100362         3.685013         0.199510
 C        -2.299003         2.899315         0.983167
 C        -2.215670         1.506610         0.595452
 H        -3.629128         1.155714         2.925916
 H         0.040072         2.150473         2.596263
 H        -0.467223         0.513802         2.597119
 H         0.517619         0.097230        -0.500228
 H         0.889620         2.695255        -0.202192
 H        -0.314620         2.386561        -1.436217
 H        -0.655665         4.305443         1.000620
 H        -1.535632         4.290279        -0.602442
 H        -3.285110         3.435714         0.944539
 H        -3.055586         1.110101         0.043288
