19
Iteration:  4725
 O        -3.104485         1.981195         3.062294
 C        -2.175795         1.897842         2.005466
 C        -0.784328         1.254661         2.164806
 C        -0.711327         1.302306         0.539799
 O        -0.166943         0.107924        -0.018869
 C        -0.107294         2.590751        -0.084431
 C        -1.178454         3.674235         0.160496
 C        -2.243170         2.949582         0.851651
 C        -2.254906         1.442168         0.533226
 H        -3.510270         1.124698         3.251813
 H        -0.095028         1.594857         2.933073
 H        -0.941927         0.259106         2.329899
 H        -0.471291         0.019677        -0.955949
 H         0.895232         2.706390         0.407211
 H         0.063489         2.316413        -1.095498
 H        -0.907001         4.455619         0.786368
 H        -1.541500         4.095914        -0.808505
 H        -3.241936         3.425315         0.971703
 H        -3.014438         1.125119        -0.197750
