19
Iteration:  1282
 O        -3.034166         1.814972         2.972087
 C        -2.178588         1.940171         1.913201
 C        -0.761386         1.499210         2.088846
 C        -0.681264         1.345910         0.499028
 O        -0.387275        -0.052025         0.189216
 C        -0.081358         2.520456        -0.205626
 C        -1.055254         3.719300         0.353568
 C        -2.374966         2.933096         0.812027
 C        -2.180197         1.552460         0.471893
 H        -2.904697         0.874933         3.374541
 H        -0.097507         2.284006         2.543600
 H        -0.682945         0.517452         2.414559
 H        -1.206896        -0.300627        -0.316939
 H         0.920008         2.596550         0.218365
 H         0.123669         2.495549        -1.303314
 H        -0.701140         4.208209         1.301666
 H        -1.193570         4.557354        -0.338285
 H        -3.416199         3.313001         0.839377
 H        -2.919370         0.998906        -0.145408
