19
Iteration:  1635
 O        -3.054084         1.835817         3.088940
 C        -2.232575         1.894537         1.923465
 C        -0.761048         1.561749         2.045971
 C        -0.771362         1.285683         0.512962
 O        -0.362815         0.071586         0.111590
 C        -0.197161         2.560950        -0.164904
 C        -0.928852         3.658869         0.338313
 C        -2.236897         2.897315         0.809497
 C        -2.287377         1.421933         0.448601
 H        -3.831922         1.323974         3.000522
 H        -0.037011         2.348839         2.451070
 H        -0.560442         0.620258         2.471660
 H         0.576946        -0.155051         0.262703
 H         0.869843         2.620256         0.070804
 H        -0.209247         2.453758        -1.270290
 H        -0.606594         4.244325         1.237670
 H        -1.076742         4.471352        -0.398298
 H        -3.266393         3.244235         0.691291
 H        -2.790652         0.815940        -0.324838
