19
Iteration:  4320
 O        -3.130994         1.818028         3.008534
 C        -2.162583         1.958496         1.924710
 C        -0.773089         1.416382         2.101630
 C        -0.744021         1.220420         0.529896
 O        -0.290069         0.083214         0.038569
 C        -0.118766         2.527378        -0.141809
 C        -1.063562         3.739104         0.359812
 C        -2.353246         2.946465         0.760106
 C        -2.238064         1.476899         0.538402
 H        -2.668764         1.322528         3.777521
 H         0.093348         2.014498         2.488447
 H        -0.898371         0.451014         2.493738
 H         0.668026         0.206019        -0.162296
 H         0.929873         2.536963         0.011515
 H        -0.158258         2.421963        -1.297834
 H        -0.706612         4.412337         1.110197
 H        -1.264736         4.357115        -0.560869
 H        -3.316678         3.425388         0.771635
 H        -3.090400         0.888912         0.102859
