19
Iteration:  4098charge 0 multiplicity 1
 O        -3.159984         1.632149         2.863280
 C        -2.159172         1.928338         1.985660
 C        -0.722519         1.524169         2.099014
 C        -0.681038         1.340585         0.556546
 O        -0.256641        -0.015889         0.195341
 C        -0.152669         2.578736        -0.301358
 C        -1.017716         3.697258         0.347272
 C        -2.332385         2.982261         0.804556
 C        -2.257194         1.566480         0.573817
 H        -2.766455         1.877260         3.755915
 H        -0.030931         2.126205         2.787920
 H        -0.951781         0.493194         2.601059
 H        -0.881904        -0.297722        -0.527110
 H         0.951982         2.785313        -0.257818
 H        -0.440819         2.436220        -1.364080
 H        -0.317501         4.060561         1.134791
 H        -1.228970         4.577073        -0.268091
 H        -3.267554         3.508727         0.692443
 H        -3.105810         1.029254         0.083347
