19
Iteration:  1030
 O        -2.937170         1.972814         3.082407
 C        -2.219616         1.993975         1.943561
 C        -0.858574         1.295309         2.012949
 C        -0.775036         1.284543         0.482134
 O        -0.129632         0.138610        -0.013410
 C        -0.172980         2.460553        -0.052724
 C        -1.017770         3.648326         0.368261
 C        -2.332226         2.921010         0.861069
 C        -2.390725         1.413537         0.402477
 H        -3.847595         2.164546         3.028350
 H        -0.133082         2.038630         2.380428
 H        -0.886315         0.419626         2.611737
 H         0.129023        -0.511082         0.671852
 H         0.809313         2.680887         0.355251
 H        -0.281049         2.347296        -1.149266
 H        -0.497754         4.314264         1.112682
 H        -1.201517         4.228606        -0.535189
 H        -3.287946         3.422871         0.687647
 H        -3.102164         0.787020        -0.120473
