19
Iteration:   436charge 0 multiplicity 1
 O        -3.373670         1.884232         2.975160
 C        -2.216611         1.914505         1.970731
 C        -0.741583         1.375554         2.119179
 C        -0.698844         1.274533         0.560137
 O        -0.193758         0.064163         0.058561
 C        -0.181820         2.472328        -0.124569
 C        -1.000395         3.674464         0.300362
 C        -2.203341         2.946209         0.801328
 C        -2.195063         1.518444         0.497232
 H        -2.975486         2.048413         3.816594
 H        -0.044122         2.100981         2.694332
 H        -0.716174         0.345281         2.490059
 H         0.409245         0.252774        -0.712500
 H         0.868162         2.549665        -0.117568
 H        -0.420409         2.393100        -1.184214
 H        -0.520511         4.099283         1.239215
 H        -1.138470         4.376825        -0.557693
 H        -3.180879         3.439182         0.813429
 H        -2.940627         0.982881        -0.149817
