19
Iteration:   861
 O        -3.197860         2.018740         2.986294
 C        -2.158253         1.899759         2.024842
 C        -0.790419         1.359121         2.106945
 C        -0.693892         1.255471         0.485982
 O        -0.116624         0.033881        -0.080852
 C        -0.115009         2.555369        -0.097916
 C        -1.034274         3.676785         0.319353
 C        -2.333268         2.973624         0.839352
 C        -2.245277         1.433728         0.633462
 H        -3.837431         1.348787         2.846546
 H         0.017621         1.940074         2.536699
 H        -0.711358         0.362068         2.550353
 H        -0.842293        -0.520126        -0.474931
 H         0.863322         2.614202         0.311066
 H        -0.172355         2.467145        -1.176985
 H        -0.711604         4.480542         0.907931
 H        -1.232275         4.245002        -0.598309
 H        -3.346201         3.403598         0.905800
 H        -3.120094         0.856965         0.324190
