19
Iteration:  4287charge 0 multiplicity 1
 O        -3.221971         1.683531         2.927145
 C        -2.200751         1.822477         1.998284
 C        -0.700622         1.533902         2.051841
 C        -0.736000         1.242907         0.451258
 O        -0.275331        -0.019834         0.120879
 C        -0.110866         2.565689        -0.276827
 C        -1.073021         3.719349         0.339026
 C        -2.240201         3.028133         0.905360
 C        -2.289001         1.584290         0.526721
 H        -2.846222         1.754410         3.858081
 H         0.016443         2.352375         2.342939
 H        -0.517813         0.708950         2.705822
 H         0.566186        -0.207859         0.503864
 H         0.886451         2.762068        -0.056458
 H        -0.354478         2.529082        -1.399515
 H        -0.595676         4.428547         0.960329
 H        -1.327874         4.152045        -0.633594
 H        -3.054023         3.620460         1.330894
 H        -3.201212         1.185811         0.026489
