19
Iteration:  3710
 O        -3.217652         1.696811         2.858818
 C        -2.185792         1.981156         1.988644
 C        -0.571154         1.559876         2.099648
 C        -0.692887         1.276794         0.548022
 O        -0.247886         0.022030         0.174463
 C        -0.302369         2.463585        -0.306332
 C        -1.050947         3.708346         0.359269
 C        -2.293714         2.996981         0.796960
 C        -2.181168         1.433071         0.676009
 H        -3.054413         2.363215         3.580912
 H         0.153297         2.303655         2.417746
 H        -0.595743         0.665626         2.643459
 H        -0.298609         0.192904        -0.812237
 H         0.735392         2.574539        -0.593484
 H        -0.975144         2.335052        -1.207139
 H        -0.533711         4.060668         1.242325
 H        -1.115707         4.494990        -0.369071
 H        -3.226328         3.547827         0.845715
 H        -2.884554         0.788892         0.139956
