19
Iteration:  3537charge 0 multiplicity 1
 O        -3.076427         1.606409         2.927502
 C        -2.087006         1.996697         1.949303
 C        -0.654275         1.559453         1.996448
 C        -0.675606         1.235402         0.485750
 O        -0.276474        -0.039605         0.282374
 C        -0.181360         2.516960        -0.288736
 C        -1.071493         3.651314         0.383773
 C        -2.384998         3.060548         0.769689
 C        -2.436664         1.574442         0.565282
 H        -3.141096         2.277712         3.649209
 H         0.015393         2.381595         2.266552
 H        -0.367638         0.803348         2.775615
 H         0.310639        -0.011059        -0.475795
 H         0.920252         2.587964        -0.308513
 H        -0.394713         2.522449        -1.285947
 H        -0.465636         4.116076         1.213088
 H        -1.262151         4.518415        -0.270500
 H        -3.395076         3.601184         0.824198
 H        -3.260864         0.857620         0.280380
