19
Iteration:  1398
 O        -3.066162         2.022434         3.014458
 C        -2.232216         1.869572         1.998918
 C        -0.707950         1.479088         2.031813
 C        -0.779797         1.291554         0.479994
 O        -0.399529         0.049835        -0.029593
 C         0.008769         2.566205         0.028314
 C        -1.121577         3.631107         0.296550
 C        -2.328552         2.881679         0.817164
 C        -2.252980         1.395486         0.430143
 H        -2.907617         1.220995         3.649351
 H         0.025128         2.210150         2.271995
 H        -0.595899         0.494763         2.680685
 H         0.557709        -0.224681         0.109842
 H         0.997782         2.412369         0.577132
 H         0.234551         2.728589        -1.020405
 H        -0.813805         4.276169         1.107024
 H        -1.205973         4.275478        -0.612559
 H        -3.356091         3.161195         0.739459
 H        -3.105054         0.798076         0.099364
