19
Iteration:  2000
 O        -3.106451         1.819622         3.011456
 C        -2.206614         1.957339         1.972675
 C        -0.688255         1.499857         2.063740
 C        -0.747204         1.324539         0.494144
 O        -0.205959         0.077414         0.017274
 C        -0.173484         2.446193        -0.194382
 C        -1.107466         3.653471         0.299264
 C        -2.316270         2.993173         0.804665
 C        -2.314518         1.489863         0.573099
 H        -2.733897         1.330567         3.738988
 H         0.024805         2.175552         2.542046
 H        -0.748845         0.443625         2.472769
 H        -0.122354        -0.627298         0.712684
 H         0.909848         2.479779         0.180102
 H        -0.139856         2.302700        -1.274813
 H        -0.409914         4.107946         1.007181
 H        -1.399723         4.378612        -0.533379
 H        -3.229639         3.596219         0.803060
 H        -3.090386         0.970925         0.087428
