19
Iteration:   774charge 0 multiplicity 1
 O        -3.217465         1.775835         2.919596
 C        -2.196501         1.960068         1.872444
 C        -0.723845         1.380222         2.103535
 C        -0.700615         1.300430         0.602161
 O        -0.269617         0.074850         0.030971
 C        -0.175283         2.473129        -0.232901
 C        -0.995128         3.651368         0.455126
 C        -2.265729         3.009490         0.870567
 C        -2.288447         1.500915         0.512881
 H        -3.317570         2.686506         3.335450
 H         0.082449         2.050615         2.449788
 H        -0.648751         0.394516         2.510079
 H         0.631730        -0.167600         0.385815
 H         0.891919         2.583744        -0.156116
 H        -0.553473         2.216813        -1.248280
 H        -0.343874         4.161454         1.160763
 H        -1.087794         4.362869        -0.416866
 H        -3.155092         3.718487         0.858431
 H        -3.148555         0.945302         0.064726
