19
Iteration:   746charge 0 multiplicity 1
 O        -3.268081         1.895158         3.007575
 C        -2.210372         1.915368         1.975193
 C        -0.736758         1.452326         2.261975
 C        -0.716547         1.315971         0.489598
 O        -0.299947        -0.049357        -0.055883
 C        -0.142202         2.548106        -0.279024
 C        -0.995795         3.706498         0.478263
 C        -2.240039         2.911945         0.874990
 C        -2.165449         1.432268         0.525596
 H        -3.900286         2.425588         2.504620
 H        -0.005032         2.042029         2.888390
 H        -0.607403         0.363377         2.403721
 H         0.577860         0.053610        -0.532158
 H         0.964194         2.545991        -0.084677
 H        -0.483436         2.402338        -1.327756
 H        -0.320344         4.324137         1.144085
 H        -1.151092         4.526273        -0.227626
 H        -3.123594         3.320807         0.436114
 H        -2.964010         0.944333         0.019878
