19
Iteration:  2494charge 0 multiplicity 1
 O        -3.067422         2.163485         3.089745
 C        -2.168031         1.903955         2.041580
 C        -0.716276         1.341853         2.124332
 C        -0.728710         1.291877         0.494453
 O        -0.222120         0.103765        -0.157944
 C        -0.098668         2.577801        -0.097825
 C        -1.168682         3.573318         0.230290
 C        -2.307599         2.815354         0.923167
 C        -2.261753         1.369791         0.549971
 H        -3.135174         1.341509         3.587966
 H         0.099317         1.846757         2.667475
 H        -0.735130         0.227158         2.420699
 H        -1.078234        -0.145131        -0.601497
 H         0.904979         2.830619         0.288409
 H         0.068798         2.566712        -1.177950
 H        -0.668691         4.369012         0.742132
 H        -1.700732         3.960908        -0.653243
 H        -3.237034         3.327057         0.982229
 H        -3.061422         0.802203         0.006488
