19
Iteration:  3601charge 0 multiplicity 1
 O        -3.135394         2.022200         2.926832
 C        -2.097845         1.930400         2.001492
 C        -0.667516         1.204007         2.058589
 C        -0.692057         1.293184         0.525900
 O        -0.163809         0.055897         0.002569
 C        -0.170432         2.561205        -0.088448
 C        -1.230521         3.692936         0.257861
 C        -2.351598         2.873971         0.926273
 C        -2.250313         1.398726         0.593428
 H        -3.180156         2.975755         3.321300
 H         0.041011         1.850172         2.597263
 H        -0.764090         0.254362         2.568703
 H        -0.591341        -0.279398        -0.787693
 H         0.739750         2.867320         0.449246
 H         0.058665         2.570789        -1.205336
 H        -0.773470         4.511558         0.915349
 H        -1.549989         4.168640        -0.693391
 H        -3.296940         3.510886         1.024410
 H        -2.947561         0.740201         0.002207
