19
Iteration:  2547charge 0 multiplicity 1
 O        -2.947787         1.909962         3.140278
 C        -2.182759         1.983441         1.991011
 C        -0.796092         1.424256         2.086852
 C        -0.812401         1.228193         0.494942
 O        -0.153889         0.143254        -0.067971
 C        -0.124577         2.421529        -0.178404
 C        -1.120405         3.629843         0.224353
 C        -2.365555         2.982943         0.867556
 C        -2.311417         1.532003         0.554736
 H        -3.071376         0.959984         3.330878
 H        -0.035685         2.010040         2.498786
 H        -0.914905         0.400132         2.445455
 H        -0.688893        -0.667917         0.149963
 H         0.904146         2.512919         0.224084
 H        -0.159709         2.404022        -1.257408
 H        -0.603161         4.274503         0.961116
 H        -1.423424         4.219194        -0.695034
 H        -3.282006         3.507016         1.042596
 H        -3.110632         0.992775         0.012166
