19
Iteration:  4596charge 0 multiplicity 1
 O        -3.139679         1.798515         3.041408
 C        -2.178252         1.961083         1.974720
 C        -0.712897         1.457290         2.142323
 C        -0.747002         1.261957         0.556850
 O        -0.289655         0.012649         0.009632
 C        -0.155373         2.507405        -0.236040
 C        -1.084080         3.711622         0.276625
 C        -2.262261         3.022693         0.911859
 C        -2.224864         1.509076         0.496877
 H        -3.578489         0.894936         2.956300
 H         0.003766         2.233355         2.459945
 H        -0.759145         0.477645         2.585147
 H         0.662672         0.071794        -0.000840
 H         0.857485         2.658618        -0.031877
 H        -0.230739         2.259463        -1.292397
 H        -0.553430         4.390521         0.968468
 H        -1.389915         4.486582        -0.427468
 H        -3.334020         3.287219         0.856641
 H        -3.015271         0.966919        -0.002844
