19
Iteration:   506charge 0 multiplicity 1
 O        -3.088858         1.897527         2.977823
 C        -2.229914         1.841592         1.913718
 C        -0.814120         1.462664         2.113707
 C        -0.670895         1.239592         0.588254
 O        -0.280800        -0.043258         0.020587
 C        -0.069295         2.607337        -0.023374
 C        -1.082241         3.706171         0.327621
 C        -2.255203         2.916103         0.809018
 C        -2.250431         1.438054         0.487086
 H        -3.708518         2.600489         2.889149
 H        -0.145626         2.071724         2.720981
 H        -0.793570         0.428229         2.504374
 H        -0.530091         0.125036        -0.919238
 H         0.925420         2.920769         0.442755
 H         0.205980         2.415844        -1.081321
 H        -0.633677         4.354555         1.160453
 H        -1.346996         4.360325        -0.516449
 H        -3.210203         3.462682         0.718067
 H        -2.959258         0.920086        -0.118303
