19
Iteration:  3331charge 0 multiplicity 1
 O        -3.012429         1.710223         3.099075
 C        -2.150079         1.935298         1.950074
 C        -0.774706         1.495545         2.046327
 C        -0.673336         1.258927         0.490236
 O        -0.265614        -0.001875         0.311389
 C        -0.232835         2.622514        -0.401442
 C        -1.035995         3.761585         0.342891
 C        -2.277147         2.914962         0.780906
 C        -2.225855         1.465186         0.501681
 H        -3.841729         1.981502         2.817267
 H        -0.193788         2.217337         2.642020
 H        -0.833803         0.457447         2.502795
 H        -0.788793        -0.230342        -0.517202
 H         0.860804         2.829468        -0.614058
 H        -0.704598         2.574592        -1.430717
 H        -0.709961         4.254502         1.267635
 H        -1.202425         4.611853        -0.283167
 H        -3.225757         3.471990         0.825838
 H        -3.036312         0.917949         0.071276
