19
Iteration:  4935charge 0 multiplicity 1
 O        -3.162462         1.887235         2.973737
 C        -2.150753         1.942492         2.012352
 C        -0.725845         1.400198         2.000699
 C        -0.800418         1.277393         0.504856
 O        -0.124063         0.064903         0.098812
 C        -0.107378         2.514298        -0.118787
 C        -1.082576         3.684108         0.289324
 C        -2.320476         2.943407         0.927588
 C        -2.412252         1.451028         0.489851
 H        -2.853588         1.109581         3.573521
 H         0.213010         1.860458         2.422472
 H        -0.644942         0.377718         2.320303
 H        -0.009983         0.146776        -0.892901
 H         0.929772         2.551633         0.368015
 H         0.085077         2.660413        -1.182522
 H        -0.708867         4.367527         0.995733
 H        -1.321471         4.327351        -0.606117
 H        -3.252610         3.556227         1.062018
 H        -3.240465         1.131744        -0.124361
