19
Iteration:  1699charge 0 multiplicity 1
 O        -3.242473         1.932693         2.880546
 C        -2.152070         1.876416         2.048787
 C        -0.676119         1.430512         2.155788
 C        -0.732907         1.282992         0.572856
 O        -0.327765         0.036545         0.100974
 C        -0.164287         2.538505        -0.307827
 C        -1.007556         3.692854         0.289373
 C        -2.252670         2.926164         0.929280
 C        -2.244305         1.444970         0.541435
 H        -3.309663         0.995387         3.254370
 H         0.092004         2.103742         2.726162
 H        -0.490492         0.430657         2.483936
 H         0.574638         0.177194        -0.304619
 H         0.876491         2.824718        -0.217911
 H        -0.449883         2.642855        -1.396763
 H        -0.485340         4.348659         1.029544
 H        -1.264798         4.333375        -0.549354
 H        -3.250568         3.404687         0.853438
 H        -2.999330         0.801138         0.026966
