19
Iteration:  3630charge 0 multiplicity 1
 O        -3.038848         1.913381         3.018741
 C        -2.142660         1.994625         1.955695
 C        -0.709456         1.337144         2.094917
 C        -0.710032         1.267048         0.550090
 O        -0.177152         0.017753        -0.056302
 C        -0.145934         2.554026         0.025840
 C        -1.169300         3.681491         0.199601
 C        -2.442492         2.902621         0.765212
 C        -2.323531         1.400997         0.604512
 H        -2.992572         2.730114         3.561115
 H         0.015877         1.978693         2.653586
 H        -0.847293         0.463340         2.695946
 H        -0.331729         0.068898        -1.036341
 H         0.751035         2.798069         0.585453
 H         0.393440         2.492603        -0.974860
 H        -0.821040         4.398944         0.899612
 H        -1.207284         4.242734        -0.741734
 H        -3.390315         3.467576         0.775331
 H        -2.972829         0.675219         0.193616
