19
Iteration:  4564charge 0 multiplicity 1
 O        -3.055559         1.937524         3.068669
 C        -2.149881         1.901195         1.914474
 C        -0.733519         1.396942         2.102967
 C        -0.753119         1.338696         0.561794
 O        -0.383648         0.085613        -0.036423
 C        -0.013710         2.560633        -0.109675
 C        -1.133832         3.675548         0.323166
 C        -2.389822         2.862657         0.780146
 C        -2.225452         1.443930         0.444964
 H        -2.957016         1.049610         3.453895
 H        -0.034257         2.126876         2.564731
 H        -0.710872         0.401235         2.621838
 H         0.463952        -0.236164         0.358492
 H         0.897583         2.842876         0.366273
 H         0.037244         2.424544        -1.249048
 H        -0.860104         4.197973         1.320135
 H        -1.362963         4.403850        -0.455555
 H        -3.323944         3.344499         0.718656
 H        -2.917639         0.804197        -0.074334
