19
Iteration:  2400charge 0 multiplicity 1
 O        -3.134401         1.850547         2.961845
 C        -2.147902         1.944559         2.058972
 C        -0.672544         1.571528         2.132032
 C        -0.690650         1.326409         0.511500
 O        -0.273664         0.003494         0.027994
 C        -0.318044         2.434199        -0.403102
 C        -1.001374         3.612189         0.320124
 C        -2.325639         3.029948         1.035797
 C        -2.228374         1.467577         0.665033
 H        -3.644631         1.032814         2.793217
 H         0.066322         2.351319         2.387845
 H        -0.339051         0.664795         2.530242
 H         0.300328         0.031916        -0.725649
 H         0.717161         2.334512        -0.675700
 H        -0.737230         2.206328        -1.411733
 H        -0.349548         4.191795         1.078867
 H        -1.228813         4.343117        -0.474254
 H        -3.275656         3.486810         1.123260
 H        -2.947673         0.935898         0.067271
