19
Iteration:  3088charge 0 multiplicity 1
 O        -3.080418         1.815750         2.977211
 C        -2.105177         2.046719         2.010878
 C        -0.695990         1.535374         2.128507
 C        -0.754231         1.271882         0.550662
 O        -0.253852        -0.016490        -0.027770
 C        -0.136510         2.547486        -0.124294
 C        -1.148746         3.647440         0.321246
 C        -2.352387         2.871868         0.749215
 C        -2.251528         1.373891         0.584338
 H        -2.955248         2.374763         3.808353
 H         0.031469         2.319997         2.521647
 H        -0.658237         0.600342         2.655728
 H        -0.537182         0.076077        -0.928479
 H         0.906772         2.857296         0.072446
 H         0.000379         2.394495        -1.210875
 H        -0.829626         4.228852         1.214610
 H        -1.393011         4.373578        -0.463706
 H        -3.364389         3.398336         0.698203
 H        -3.095624         0.918427         0.155949
