19
Iteration:  2524
 O        -3.010095         2.079080         3.004379
 C        -2.100298         1.973380         1.968091
 C        -0.648060         1.135312         2.087997
 C        -0.762861         1.208966         0.538160
 O        -0.092765         0.027992        -0.060077
 C        -0.233913         2.575542        -0.062788
 C        -1.209914         3.780582         0.183568
 C        -2.300430         2.964733         0.883648
 C        -2.363534         1.489592         0.619140
 H        -3.315329         1.222380         3.302567
 H         0.259190         1.561222         2.415084
 H        -0.911341         0.122458         2.314014
 H        -0.879208        -0.474193        -0.178391
 H         0.795426         2.858530         0.268250
 H        -0.311789         2.387840        -1.137648
 H        -0.668502         4.538262         0.836985
 H        -1.794330         4.198554        -0.688975
 H        -3.329456         3.304032         1.074995
 H        -3.333967         0.921692         0.431203
