19
Iteration:  4278
 O        -3.252601         1.642152         2.951216
 C        -2.150093         1.855613         1.985497
 C        -0.685479         1.473658         2.084304
 C        -0.709851         1.343353         0.461898
 O        -0.342122         0.008411         0.114227
 C        -0.104731         2.521590        -0.279543
 C        -1.024752         3.787655         0.278996
 C        -2.252102         3.005355         0.951361
 C        -2.280066         1.521661         0.518146
 H        -2.858136         2.007137         3.808957
 H        -0.099348         2.393237         2.484720
 H        -0.328313         0.653237         2.657630
 H         0.400950        -0.133133         0.685690
 H         0.937283         2.639364        -0.253956
 H        -0.350753         2.463888        -1.363228
 H        -0.571926         4.478807         0.961707
 H        -1.365617         4.476103        -0.466647
 H        -3.247657         3.400027         0.800726
 H        -3.106929         0.971079        -0.012789
