19
Iteration:  1004
 O        -3.116824         1.887660         3.027996
 C        -2.163044         1.910418         2.039593
 C        -0.767938         1.276999         2.132006
 C        -0.719530         1.309480         0.473578
 O        -0.195034        -0.027665        -0.048553
 C        -0.137246         2.542434        -0.177337
 C        -1.125028         3.709596         0.253676
 C        -2.264804         2.989565         0.848601
 C        -2.289508         1.543980         0.552466
 H        -3.835443         2.471568         2.835568
 H        -0.058119         1.984970         2.641696
 H        -0.710292         0.259932         2.556089
 H         0.240108        -0.412672         0.738615
 H         0.807328         2.854814         0.232061
 H        -0.153230         2.353703        -1.245388
 H        -0.558861         4.233062         1.044323
 H        -1.406649         4.489240        -0.498714
 H        -3.213153         3.537957         0.814354
 H        -3.093676         0.950727         0.096485
