19
Iteration:   585charge 0 multiplicity 1
 O        -3.021578         1.881374         3.011450
 C        -2.288943         1.877949         1.888917
 C        -0.831875         1.267013         2.049613
 C        -0.739425         1.314209         0.495244
 O        -0.175807         0.033284         0.274482
 C        -0.175598         2.565980        -0.172518
 C        -0.965449         3.623633         0.386575
 C        -2.310503         3.008739         0.869009
 C        -2.370128         1.634616         0.366327
 H        -3.678048         1.213384         2.923276
 H        -0.330855         2.021980         2.567893
 H        -0.516945         0.200466         2.432770
 H         0.007742        -0.009085        -0.691117
 H         0.960380         2.618011        -0.011235
 H        -0.384922         2.309733        -1.282187
 H        -0.340337         4.105844         1.171584
 H        -0.940408         4.468859        -0.378174
 H        -3.081687         3.766451         0.881393
 H        -2.934164         1.044788        -0.411241
