19
Iteration:  2642charge 0 multiplicity 1
 O        -3.059146         1.864828         3.208099
 C        -2.211850         1.885296         1.990969
 C        -0.786750         1.512173         2.202614
 C        -0.756959         1.254284         0.454197
 O        -0.271924         0.038734        -0.084807
 C        -0.174231         2.508162        -0.298570
 C        -1.011846         3.600389         0.231246
 C        -2.233748         3.007874         0.930738
 C        -2.307111         1.471877         0.586197
 H        -3.771099         1.160360         2.978376
 H        -0.039936         2.359104         2.499138
 H        -0.781243         0.572434         2.763389
 H         0.477886         0.432491        -0.617074
 H         0.881883         2.572165         0.042921
 H        -0.215137         2.145923        -1.333830
 H        -0.486620         4.407940         0.812266
 H        -1.361048         4.106874        -0.683982
 H        -3.133440         3.568527         0.931484
 H        -3.064812         1.211380        -0.160823
