19
Iteration:  1210charge 0 multiplicity 1
 O        -3.139887         2.075500         2.971122
 C        -2.106699         1.922349         2.049284
 C        -0.771778         1.257416         2.133217
 C        -0.758644         1.243774         0.593296
 O        -0.158624         0.209685        -0.116867
 C        -0.191747         2.422920        -0.110482
 C        -1.070284         3.713164         0.300892
 C        -2.276481         2.895103         0.796265
 C        -2.291548         1.448074         0.548149
 H        -3.680177         1.279666         3.290207
 H        -0.044912         1.838146         2.685550
 H        -0.963177         0.231060         2.620849
 H        -0.010273        -0.603370         0.354501
 H         0.903981         2.588702        -0.120639
 H        -0.366380         2.182241        -1.165238
 H        -0.508815         4.266549         1.058627
 H        -1.326329         4.460459        -0.467190
 H        -3.221134         3.445315         0.701446
 H        -2.975650         0.809541         0.003423
