19
Iteration:  4917charge 0 multiplicity 1
 O        -3.048948         1.842760         3.009815
 C        -2.167750         1.908895         1.962012
 C        -0.796619         1.340438         2.024932
 C        -0.755451         1.291228         0.468242
 O        -0.235868         0.037980         0.087675
 C        -0.087963         2.575830        -0.007536
 C        -1.116694         3.673918         0.243511
 C        -2.344635         3.009703         0.863989
 C        -2.286019         1.561789         0.521275
 H        -2.704886         0.958121         3.380065
 H        -0.106963         1.946248         2.600707
 H        -0.999155         0.307260         2.478342
 H         0.130257        -0.173905        -0.804643
 H         0.800624         2.927309         0.449401
 H         0.104437         2.414140        -1.123574
 H        -0.824548         4.636871         0.810238
 H        -1.467503         4.123575        -0.683265
 H        -3.286975         3.488708         0.580311
 H        -3.007548         0.820391         0.203675
