19
Iteration:  4802
 O        -3.099493         1.823320         3.017614
 C        -2.219987         1.853654         1.914547
 C        -0.748484         1.489930         2.062413
 C        -0.701465         1.291342         0.485441
 O        -0.232277         0.043054         0.226334
 C        -0.214885         2.562790        -0.315643
 C        -1.010744         3.665818         0.480013
 C        -2.269933         2.936994         0.804921
 C        -2.310885         1.555650         0.437122
 H        -3.013968         0.988671         3.607022
 H        -0.075990         2.095265         2.648471
 H        -0.695186         0.533131         2.332929
 H        -0.157295        -0.161883        -0.738780
 H         0.854585         2.839291        -0.081590
 H        -0.368327         2.413836        -1.372642
 H        -0.465397         4.061330         1.265218
 H        -1.204029         4.542083        -0.157886
 H        -3.276884         3.326892         0.714831
 H        -3.152800         1.105154        -0.177160
