19
Iteration:  4493
 O        -3.090638         1.884739         3.018360
 C        -2.194989         1.944184         1.973152
 C        -0.793710         1.351710         2.176295
 C        -0.734549         1.300461         0.598035
 O        -0.266774         0.164651        -0.013606
 C        -0.113089         2.461835        -0.233467
 C        -1.051857         3.705074         0.327629
 C        -2.295976         2.923302         0.841066
 C        -2.274424         1.468071         0.527556
 H        -3.604598         1.091275         3.100439
 H        -0.046745         2.007403         2.617386
 H        -0.687449         0.344946         2.564417
 H         0.663459         0.094940        -0.323816
 H         0.947586         2.634453        -0.286357
 H        -0.514198         2.298404        -1.145095
 H        -0.572532         4.196848         1.081872
 H        -1.439401         4.370079        -0.445498
 H        -3.267055         3.396292         0.725575
 H        -2.839301         0.805609        -0.120439
