19
Iteration:  4422charge 0 multiplicity 1
 O        -3.087416         1.755472         3.021897
 C        -2.223749         1.868552         1.927423
 C        -0.785424         1.439777         2.149455
 C        -0.667288         1.312211         0.604886
 O        -0.373746         0.061120         0.037277
 C        -0.162925         2.532348        -0.284371
 C        -1.025593         3.802677         0.306549
 C        -2.332752         2.956636         0.850173
 C        -2.207631         1.559174         0.496567
 H        -2.945621         0.923493         3.460246
 H        -0.052036         2.149030         2.633070
 H        -0.714609         0.451611         2.683856
 H         0.454664        -0.288406         0.424148
 H         0.932107         2.658980         0.008869
 H        -0.360307         2.113686        -1.376378
 H        -0.405711         4.356832         1.106695
 H        -1.269354         4.357909        -0.581993
 H        -3.330939         3.491540         0.729579
 H        -2.655880         0.946577        -0.281862
