19
Iteration:  2496charge 0 multiplicity 1
 O        -3.072753         2.166776         3.079829
 C        -2.149010         1.926470         2.044243
 C        -0.706824         1.314695         2.119853
 C        -0.723411         1.300664         0.468690
 O        -0.220403         0.098591        -0.150607
 C        -0.109857         2.583332        -0.095477
 C        -1.168146         3.571221         0.230525
 C        -2.309052         2.818187         0.939993
 C        -2.269020         1.369962         0.552991
 H        -3.215549         1.390942         3.590239
 H         0.113428         1.863608         2.705085
 H        -0.798460         0.204073         2.386294
 H        -1.030569        -0.186689        -0.580775
 H         0.856992         2.882397         0.310738
 H         0.051077         2.506129        -1.196572
 H        -0.693434         4.364786         0.757866
 H        -1.732737         3.913603        -0.609792
 H        -3.247207         3.315178         1.026439
 H        -2.961085         0.776553        -0.024499
