19
Iteration:  3723charge 0 multiplicity 1
 O        -3.220934         1.727322         2.969810
 C        -2.127005         1.935469         2.010458
 C        -0.670640         1.612529         2.155482
 C        -0.685031         1.322282         0.621469
 O        -0.212666         0.023924         0.094989
 C        -0.297312         2.514405        -0.346026
 C        -0.966809         3.650353         0.323467
 C        -2.315509         2.926174         0.837070
 C        -2.260112         1.473730         0.514899
 H        -3.265957         2.342784         3.696594
 H         0.008796         2.364781         2.501052
 H        -0.420471         0.627544         2.689929
 H        -0.500648        -0.179120        -0.786586
 H         0.839999         2.598238        -0.365695
 H        -0.578785         2.234971        -1.399137
 H        -0.342416         4.087497         1.181516
 H        -1.295938         4.508750        -0.267475
 H        -3.249556         3.250354         0.550248
 H        -2.968575         0.796876         0.128420
