19
Iteration:  1359
 O        -3.128173         2.042593         3.025633
 C        -2.127342         1.970304         1.987260
 C        -0.864428         1.318116         2.117587
 C        -0.717265         1.231180         0.446964
 O        -0.158130         0.009174         0.016303
 C        -0.189128         2.511679        -0.169279
 C        -1.055155         3.727640         0.329150
 C        -2.314896         2.938476         0.879170
 C        -2.244013         1.421384         0.534246
 H        -3.283292         1.230897         3.450563
 H        -0.125828         1.852746         2.819729
 H        -1.051668         0.314581         2.377519
 H         0.637945         0.244641        -0.441152
 H         0.872415         2.616120        -0.258581
 H        -0.583915         2.196830        -1.172794
 H        -0.606381         4.300746         1.202216
 H        -1.326306         4.440651        -0.450366
 H        -3.276408         3.404168         0.622024
 H        -3.106463         1.028433         0.043964
