19
Iteration:  1489
 O        -3.201407         1.953155         3.065050
 C        -2.255602         1.904874         1.932255
 C        -0.702678         1.571146         2.048453
 C        -0.707998         1.235866         0.535361
 O        -0.268007        -0.027855         0.059343
 C        -0.243037         2.509804        -0.214997
 C        -0.985652         3.626512         0.438102
 C        -2.243239         2.935875         0.862862
 C        -2.233542         1.441191         0.474964
 H        -3.287193         0.957346         3.108186
 H         0.019572         2.375159         2.293803
 H        -0.360345         0.687467         2.563132
 H         0.539520         0.121822        -0.437766
 H         0.831860         2.646046        -0.247122
 H        -0.666180         2.558009        -1.239857
 H        -0.562383         4.106296         1.344799
 H        -1.150788         4.400219        -0.298949
 H        -3.222912         3.484947         0.786896
 H        -2.758408         1.031027        -0.415727
