19
Iteration:  2765charge 0 multiplicity 1
 O        -3.081992         1.708819         2.979192
 C        -2.187603         2.005075         2.006466
 C        -0.596668         1.547692         2.022579
 C        -0.756709         1.247173         0.463080
 O        -0.237887         0.021095         0.001508
 C        -0.247753         2.488037        -0.204146
 C        -1.062865         3.646415         0.383009
 C        -2.342857         2.999580         0.830786
 C        -2.232146         1.533165         0.588999
 H        -3.079331         2.489023         3.640909
 H         0.300473         2.143728         2.408267
 H        -0.661649         0.593001         2.650461
 H        -0.944401        -0.666198         0.155193
 H         0.845113         2.621089        -0.190210
 H        -0.538799         2.313534        -1.255203
 H        -0.544862         4.069938         1.262531
 H        -1.212529         4.606223        -0.133720
 H        -3.401152         3.372061         0.931947
 H        -3.100115         1.045238         0.103980
