19
Iteration:  1058
 O        -2.990307         1.943470         3.173885
 C        -2.264594         1.964996         1.925604
 C        -0.775924         1.420561         2.047331
 C        -0.671615         1.277893         0.501839
 O        -0.138358         0.033307        -0.043643
 C        -0.089995         2.499983        -0.104696
 C        -1.024927         3.724172         0.422804
 C        -2.441334         2.915904         0.732572
 C        -2.388922         1.386845         0.443452
 H        -3.885398         2.338031         3.130499
 H        -0.084633         2.021297         2.706661
 H        -0.843976         0.441650         2.730009
 H        -0.718355        -0.740769         0.071789
 H         1.008601         2.744647         0.075273
 H        -0.165936         2.547684        -1.201177
 H        -0.553569         4.184656         1.306150
 H        -0.992391         4.295778        -0.548606
 H        -3.440042         3.388353         0.668971
 H        -2.947578         0.745946        -0.286957
