19
Iteration:  1783
 O        -3.132140         2.071916         3.071430
 C        -2.196185         1.923232         2.033467
 C        -0.825490         1.268351         2.059546
 C        -0.706807         1.224328         0.543839
 O        -0.133321         0.078275        -0.051644
 C        -0.195364         2.551308        -0.112463
 C        -1.200769         3.705728         0.200651
 C        -2.190327         2.887291         0.911028
 C        -2.226408         1.470099         0.472408
 H        -3.361462         1.209691         3.473981
 H        -0.096514         1.638322         2.719596
 H        -1.043846         0.155934         2.319726
 H         0.293251        -0.357954         0.673019
 H         0.847916         2.850089         0.186999
 H        -0.158848         2.591999        -1.198774
 H        -0.803109         4.592596         0.708003
 H        -1.523254         4.000589        -0.823169
 H        -3.101277         3.511285         0.941816
 H        -2.886548         0.928834        -0.258410
