19
Iteration:  4626
 O        -3.210149         1.822841         2.898102
 C        -2.138312         1.952739         1.955678
 C        -0.650308         1.473369         2.018784
 C        -0.737441         1.266540         0.507952
 O        -0.219948         0.030599         0.132933
 C        -0.234535         2.497104        -0.282424
 C        -1.034405         3.679400         0.397747
 C        -2.224905         3.078375         0.943379
 C        -2.358240         1.466029         0.592675
 H        -3.546342         0.900029         2.961634
 H         0.161878         2.092354         2.477235
 H        -0.466253         0.479873         2.309353
 H         0.649434         0.168093        -0.335527
 H         0.886731         2.505094        -0.230398
 H        -0.479893         2.318174        -1.273518
 H        -0.468611         4.210290         1.097144
 H        -1.360275         4.408544        -0.373378
 H        -3.323148         3.384066         1.113378
 H        -3.218633         0.798799         0.516653
