19
Iteration:  1924
 O        -3.134194         2.035759         3.007593
 C        -2.174556         1.990495         2.017581
 C        -0.657820         1.378106         2.161016
 C        -0.745026         1.206462         0.544996
 O        -0.194336         0.092157        -0.152381
 C        -0.195824         2.457585        -0.101521
 C        -1.123643         3.591082         0.257418
 C        -2.276498         2.934996         0.832765
 C        -2.307139         1.458937         0.649151
 H        -3.411837         1.085131         3.259854
 H        -0.081666         2.091636         2.769293
 H        -0.879000         0.327183         2.591495
 H         0.593583         0.391292        -0.589079
 H         0.853766         2.612489         0.343212
 H        -0.139124         2.377961        -1.187979
 H        -0.803915         4.363087         1.006290
 H        -1.369287         4.007775        -0.775692
 H        -3.254030         3.424461         0.864017
 H        -3.066060         0.944978         0.059775
