19
Iteration:   397
 O        -3.253884         1.780503         2.806782
 C        -2.099010         1.950868         1.947208
 C        -0.667455         1.557353         2.180987
 C        -0.711953         1.259490         0.471878
 O        -0.411149        -0.032655         0.073906
 C        -0.147563         2.528303        -0.077503
 C        -1.018626         3.723218         0.364125
 C        -2.270353         2.973864         0.797736
 C        -2.250081         1.475088         0.490876
 H        -2.815016         1.295180         3.572602
 H         0.048644         2.310950         2.451020
 H        -0.404626         0.658793         2.744041
 H         0.483129        -0.287736         0.299806
 H         0.912414         2.725797         0.300358
 H        -0.198608         2.321190        -1.180123
 H        -0.629979         4.354626         1.132462
 H        -1.088203         4.521264        -0.348989
 H        -3.177535         3.507361         1.069418
 H        -3.105479         0.883077         0.113767
