19
Iteration:  2435
 O        -3.038635         1.814278         3.025883
 C        -2.111708         1.887030         1.978685
 C        -0.671240         1.435333         2.004931
 C        -0.756951         1.348912         0.452508
 O        -0.302166        -0.048961         0.301946
 C        -0.178140         2.578491        -0.346856
 C        -1.094194         3.745683         0.289700
 C        -2.353561         2.999647         0.900753
 C        -2.309860         1.525022         0.529269
 H        -2.972424         0.882952         3.294280
 H         0.115969         2.095409         2.357845
 H        -0.510871         0.419264         2.344409
 H        -0.479453        -0.440042        -0.555462
 H         0.892936         2.650644        -0.098263
 H        -0.500974         2.533885        -1.395533
 H        -0.328646         4.243501         0.983161
 H        -1.349082         4.523203        -0.496428
 H        -3.309698         3.553405         1.038808
 H        -2.978380         0.932117        -0.051012
