19
Iteration:  1266
 O        -3.063365         1.838888         2.988140
 C        -2.166598         1.897417         1.898645
 C        -0.693933         1.512653         2.049731
 C        -0.765339         1.293785         0.518749
 O        -0.383569         0.026062         0.157819
 C        -0.034123         2.601797        -0.060758
 C        -1.047565         3.647128         0.327211
 C        -2.268708         2.969411         0.850316
 C        -2.331157         1.454142         0.387727
 H        -2.695038         1.034787         3.506634
 H        -0.011695         2.161079         2.591570
 H        -0.697431         0.413864         2.555765
 H        -1.076502        -0.619503        -0.162397
 H         1.001362         2.970295         0.257312
 H        -0.212554         2.614090        -1.136501
 H        -0.587071         4.419803         0.946394
 H        -1.405631         4.073139        -0.638226
 H        -3.144382         3.595885         0.753145
 H        -2.911663         0.862771        -0.302924
