19
Iteration:   538
 O        -3.232773         1.789930         2.966364
 C        -2.228593         1.931273         1.985926
 C        -0.671141         1.476608         2.110611
 C        -0.673560         1.259090         0.628519
 O        -0.255597         0.016181        -0.006315
 C        -0.058927         2.457412        -0.073957
 C        -1.034891         3.696150         0.264416
 C        -2.284509         2.982752         0.808061
 C        -2.270131         1.531077         0.607303
 H        -4.049581         1.983052         2.408741
 H         0.181764         1.985782         2.609932
 H        -0.759807         0.476140         2.519923
 H        -0.442164         0.172932        -0.930790
 H         0.961623         2.766364         0.232574
 H        -0.054895         2.244336        -1.127893
 H        -0.540053         4.348946         1.056593
 H        -1.143077         4.387316        -0.568792
 H        -3.198801         3.588611         0.725024
 H        -3.058717         1.006807         0.115514
