19
Iteration:  2533
 O        -2.965773         1.987279         3.052713
 C        -2.088153         1.985016         1.969799
 C        -0.725646         1.231559         2.063156
 C        -0.742294         1.230816         0.542349
 O        -0.113269         0.056026        -0.055976
 C        -0.265395         2.570110        -0.087866
 C        -1.133753         3.721321         0.195409
 C        -2.302944         3.036591         0.871843
 C        -2.449659         1.437935         0.596769
 H        -3.207861         1.080737         3.275220
 H         0.133819         1.678782         2.666036
 H        -0.891698         0.291974         2.561095
 H        -0.701276        -0.674915        -0.156218
 H         0.785183         2.809179         0.193280
 H        -0.197244         2.206037        -1.131532
 H        -0.731164         4.596295         0.797205
 H        -1.436353         4.252414        -0.745874
 H        -3.280927         3.606459         0.925605
 H        -3.281306         0.790272         0.211636
