19
Iteration:  4686charge 0 multiplicity 1
 O        -3.056766         1.980965         3.011899
 C        -2.161814         1.950070         1.916568
 C        -0.746165         1.401155         2.041264
 C        -0.815663         1.223065         0.442559
 O        -0.146489         0.039132         0.081844
 C        -0.119246         2.531523        -0.014033
 C        -1.117168         3.679981         0.368446
 C        -2.367036         2.886547         0.779384
 C        -2.377853         1.428279         0.517254
 H        -2.618595         1.228076         3.537308
 H         0.066743         2.029055         2.432314
 H        -0.755723         0.262502         2.237371
 H        -0.064849         0.031805        -0.887392
 H         0.805784         2.773800         0.453951
 H         0.060783         2.735606        -1.103431
 H        -0.695554         4.335746         1.239540
 H        -1.232420         4.469505        -0.376196
 H        -3.265548         3.433023         0.849754
 H        -3.172291         1.049806        -0.134732
