19
Iteration:  1027charge 0 multiplicity 1
 O        -2.953962         1.971044         3.082277
 C        -2.200573         1.960796         1.929926
 C        -0.832753         1.306539         2.013739
 C        -0.775223         1.268031         0.491545
 O        -0.135940         0.139089        -0.000802
 C        -0.166507         2.463489        -0.066319
 C        -1.005838         3.661326         0.364923
 C        -2.341089         2.930614         0.860467
 C        -2.408425         1.420426         0.416972
 H        -3.900010         2.211081         2.983754
 H        -0.036584         2.034655         2.410972
 H        -0.982739         0.360183         2.568193
 H         0.222121        -0.530481         0.624698
 H         0.843874         2.616543         0.330184
 H        -0.300942         2.387275        -1.139352
 H        -0.583713         4.418023         1.080515
 H        -1.190431         4.240076        -0.580005
 H        -3.323415         3.441975         0.811261
 H        -3.115713         0.805701        -0.168124
