19
Iteration:  4836
 O        -3.190217         1.925655         3.000382
 C        -2.186292         1.888357         1.930814
 C        -0.742560         1.431095         2.062050
 C        -0.730928         1.255303         0.530477
 O        -0.049082         0.062878         0.034834
 C        -0.285278         2.509000        -0.210762
 C        -0.997105         3.711497         0.466019
 C        -2.314822         2.956957         0.837036
 C        -2.261992         1.495258         0.523191
 H        -3.169444         1.031173         3.446848
 H        -0.078706         1.943299         2.705753
 H        -0.700235         0.434873         2.335131
 H        -0.637654        -0.301372        -0.648524
 H         0.842351         2.632351        -0.197842
 H        -0.545397         2.347184        -1.248412
 H        -0.502787         4.140449         1.265386
 H        -1.264121         4.365610        -0.386482
 H        -3.252302         3.495965         0.754949
 H        -3.207264         1.010562         0.109412
