19
Iteration:  3198
 O        -3.130756         1.932528         3.193783
 C        -2.212772         1.909338         1.998259
 C        -0.773466         1.545378         2.121336
 C        -0.690923         1.272680         0.471548
 O        -0.217199         0.054116        -0.048665
 C        -0.098701         2.466105        -0.206341
 C        -1.056115         3.637964         0.306802
 C        -2.376912         2.851778         0.830628
 C        -2.249193         1.377894         0.452495
 H        -3.119984         2.779257         3.552202
 H        -0.094122         2.331857         2.648342
 H        -0.801807         0.707284         2.792653
 H         0.359640         0.089033        -0.864661
 H         0.975527         2.632806         0.076242
 H        -0.309555         2.256049        -1.319473
 H        -0.743387         4.362226         1.076324
 H        -1.471811         4.170587        -0.543517
 H        -3.307963         3.388690         0.851409
 H        -3.003005         0.632611         0.077578
