19
Iteration:  2727charge 0 multiplicity 1
 O        -3.007379         1.873145         3.187722
 C        -2.160016         1.873251         2.006239
 C        -0.797847         1.417013         2.066053
 C        -0.825865         1.285404         0.547228
 O        -0.146832         0.090758        -0.076640
 C        -0.140299         2.468563        -0.204283
 C        -1.094671         3.684174         0.246513
 C        -2.267858         2.968994         0.932582
 C        -2.312426         1.454018         0.526662
 H        -3.865517         2.192717         2.939258
 H        -0.123595         2.090236         2.572066
 H        -0.765671         0.430379         2.497341
 H        -0.750907        -0.329192        -0.683574
 H         0.881696         2.562458         0.191850
 H        -0.098583         2.396748        -1.312877
 H        -0.582967         4.346131         0.952110
 H        -1.337894         4.157999        -0.687073
 H        -3.212972         3.526383         0.946087
 H        -3.056441         1.261734        -0.270754
