19
Iteration:  3567charge 0 multiplicity 1
 O        -3.078689         1.718719         3.084067
 C        -2.206069         1.998508         2.013101
 C        -0.795874         1.440250         2.069777
 C        -0.729557         1.272524         0.527645
 O        -0.182529         0.084007         0.119866
 C        -0.167027         2.483131        -0.214393
 C        -1.026278         3.667595         0.235411
 C        -2.287924         2.987197         0.831756
 C        -2.313266         1.443515         0.505017
 H        -3.262224         2.555300         3.638666
 H        -0.073634         2.217588         2.505152
 H        -0.864108         0.621330         2.707743
 H        -0.302838         0.167085        -0.854191
 H         0.882997         2.558471         0.006792
 H        -0.361438         2.465775        -1.361312
 H        -0.404343         4.358958         0.856284
 H        -1.477217         4.283061        -0.585646
 H        -3.339622         3.414361         0.787537
 H        -2.881565         0.868308        -0.211081
