19
Iteration:  2268charge 0 multiplicity 1
 O        -3.156780         1.918520         3.158291
 C        -2.139094         1.933561         2.056355
 C        -0.651214         1.421866         2.102634
 C        -0.690177         1.236095         0.551398
 O        -0.320128         0.097133        -0.114952
 C        -0.222844         2.482767        -0.210738
 C        -1.127645         3.627083         0.162265
 C        -2.237729         3.004689         0.900827
 C        -2.224257         1.477248         0.631261
 H        -3.783816         1.125172         3.081010
 H         0.041891         2.191111         2.443078
 H        -0.526354         0.459093         2.528733
 H         0.620694         0.087720        -0.256755
 H         0.847971         2.654840        -0.024298
 H        -0.417596         2.178003        -1.262122
 H        -0.499599         4.444638         0.641272
 H        -1.527141         4.138661        -0.742208
 H        -3.288399         3.355315         0.882448
 H        -2.904805         0.799576         0.058618
