19
Iteration:  3521
 O        -3.138278         1.676279         2.877823
 C        -2.172084         1.929656         1.985682
 C        -0.606510         1.616751         2.029473
 C        -0.779037         1.321924         0.508274
 O        -0.330176        -0.114450         0.299916
 C        -0.228466         2.616713        -0.341781
 C        -1.032455         3.708974         0.334172
 C        -2.303682         2.967392         0.899565
 C        -2.237425         1.447764         0.520994
 H        -2.864093         2.161081         3.754876
 H         0.151324         2.403064         2.356516
 H        -0.470255         0.659308         2.514098
 H         0.189672        -0.119276        -0.506106
 H         0.833321         2.859088        -0.254977
 H        -0.612167         2.478208        -1.459202
 H        -0.519954         4.152650         1.191349
 H        -1.248397         4.578772        -0.328757
 H        -3.222851         3.489763         1.010964
 H        -3.013134         0.900536         0.007497
