19
Iteration:  4497charge 0 multiplicity 1
 O        -3.088533         1.916732         3.033062
 C        -2.228667         1.927807         1.989858
 C        -0.792377         1.328934         2.152258
 C        -0.734048         1.322595         0.587619
 O        -0.269680         0.174655        -0.022916
 C        -0.114418         2.485720        -0.215120
 C        -1.071261         3.659899         0.305171
 C        -2.282070         2.922002         0.854558
 C        -2.235526         1.455870         0.527528
 H        -3.564667         1.046043         3.099730
 H        -0.091330         2.016779         2.691705
 H        -0.785941         0.288830         2.450003
 H         0.685699         0.327085        -0.214018
 H         0.974031         2.488584        -0.245957
 H        -0.580502         2.131472        -1.219673
 H        -0.547966         4.244605         1.145554
 H        -1.360825         4.373500        -0.502318
 H        -3.302144         3.473913         0.746080
 H        -2.776577         0.800169        -0.168233
