19
Iteration:  3405charge 0 multiplicity 1
 O        -3.016148         1.947821         3.102596
 C        -2.155672         1.976831         1.963881
 C        -0.746946         1.342577         2.117364
 C        -0.686103         1.308510         0.574627
 O        -0.256823         0.057404        -0.023788
 C        -0.131374         2.529247        -0.039987
 C        -1.205836         3.641585         0.242473
 C        -2.368651         2.811972         0.801643
 C        -2.224177         1.428703         0.484827
 H        -3.615428         2.775414         3.127769
 H         0.164815         1.807543         2.557798
 H        -0.976326         0.347342         2.449036
 H         0.215588         0.325929        -0.806227
 H         0.924367         2.823582         0.266846
 H        -0.136068         2.398383        -1.154778
 H        -0.765868         4.453168         0.851872
 H        -1.564907         4.174357        -0.672311
 H        -3.318464         3.340720         0.884503
 H        -2.911387         0.867747        -0.131780
