19
Iteration:  2759
 O        -3.096411         1.692845         3.028656
 C        -2.140488         2.025177         2.061437
 C        -0.618980         1.567349         2.012044
 C        -0.809523         1.282701         0.511431
 O        -0.187189         0.021866        -0.042798
 C        -0.199081         2.442753        -0.232125
 C        -1.044648         3.635549         0.408051
 C        -2.355182         3.003024         0.802313
 C        -2.302497         1.509847         0.571870
 H        -3.292928         2.564653         3.456860
 H         0.130271         2.231474         2.374084
 H        -0.623182         0.648929         2.555064
 H        -0.892528        -0.648817        -0.114233
 H         0.884687         2.512434        -0.090372
 H        -0.427090         2.445256        -1.313439
 H        -0.579566         4.140483         1.278630
 H        -1.111938         4.472306        -0.342575
 H        -3.306590         3.530309         0.929592
 H        -3.172344         0.940725         0.231430
