19
Iteration:  2778
 O        -3.083161         1.757711         2.929551
 C        -2.073847         1.946015         1.956662
 C        -0.664377         1.457017         2.069664
 C        -0.674568         1.304166         0.560262
 O        -0.334752        -0.001275         0.048761
 C        -0.283758         2.574129        -0.317485
 C        -1.079461         3.718121         0.414611
 C        -2.324188         2.997667         0.924541
 C        -2.240483         1.454065         0.527309
 H        -2.708944         2.115605         3.732216
 H         0.083357         2.175109         2.443044
 H        -0.584118         0.447048         2.580155
 H        -0.801794        -0.595207         0.638711
 H         0.772452         2.818702        -0.278522
 H        -0.584481         2.483184        -1.360858
 H        -0.457087         4.103157         1.252661
 H        -1.271326         4.471031        -0.394894
 H        -3.299943         3.469825         0.587386
 H        -2.953049         0.868360        -0.121563
