19
Iteration:  3176
 O        -3.140721         1.802507         2.953585
 C        -2.150855         1.902127         2.008763
 C        -0.664664         1.577929         2.166786
 C        -0.745587         1.263151         0.619546
 O        -0.302491         0.021628         0.022690
 C        -0.227423         2.540004        -0.260227
 C        -1.030558         3.618934         0.285210
 C        -2.323412         2.970312         0.746050
 C        -2.217394         1.404580         0.657268
 H        -3.005030         2.495193         3.721271
 H         0.126218         2.340826         2.499600
 H        -0.488159         0.682580         2.724439
 H         0.034791         0.222773        -0.841529
 H         0.862041         2.759772        -0.077440
 H        -0.464227         2.180963        -1.307167
 H        -0.540581         4.120957         1.138204
 H        -1.400454         4.381618        -0.380813
 H        -3.349346         3.252528         0.565509
 H        -2.949683         0.920078         0.022001
