19
Iteration:  2513
 O        -3.079937         2.178681         2.989900
 C        -2.002876         1.915957         2.092724
 C        -0.680990         1.152806         2.035515
 C        -0.741569         1.199984         0.514207
 O        -0.151397         0.057753        -0.073168
 C        -0.187135         2.559582        -0.116830
 C        -1.323983         3.713931         0.230824
 C        -2.338636         2.927996         0.939549
 C        -2.230389         1.489259         0.592629
 H        -3.347008         1.343005         3.318268
 H         0.213612         1.413997         2.555546
 H        -0.801478         0.125039         2.341789
 H        -0.774810        -0.602782        -0.418588
 H         0.848190         2.700218         0.284647
 H        -0.007329         2.527019        -1.193050
 H        -0.949997         4.588155         0.866182
 H        -1.570539         4.199693        -0.755523
 H        -3.323287         3.397061         1.101177
 H        -3.089017         0.904935         0.131579
