19
Iteration:  3830charge 0 multiplicity 1
 O        -3.164742         1.914046         2.967161
 C        -2.165917         1.902014         1.950447
 C        -0.678862         1.364720         2.118312
 C        -0.722173         1.234237         0.552371
 O        -0.190485         0.028165        -0.063149
 C        -0.131200         2.537634         0.014337
 C        -1.136206         3.645438         0.189821
 C        -2.346161         2.959750         0.929971
 C        -2.280498         1.450049         0.586081
 H        -3.138802         2.817968         3.346271
 H         0.149882         2.144877         2.456594
 H        -0.699486         0.446134         2.652894
 H        -0.066106         0.284400        -0.987898
 H         0.833871         2.617149         0.479013
 H         0.060632         2.491593        -1.074542
 H        -0.774559         4.485225         0.735429
 H        -1.333489         4.040583        -0.799110
 H        -3.300878         3.400159         0.873950
 H        -3.097118         0.937908         0.123072
