19
Iteration:   472charge 0 multiplicity 1
 O        -3.085982         1.869054         2.998568
 C        -2.176239         1.988772         1.948847
 C        -0.905278         1.316931         1.946451
 C        -0.767841         1.222816         0.483102
 O        -0.014277         0.065362         0.215319
 C        -0.149012         2.507831        -0.068874
 C        -1.052432         3.610643         0.332004
 C        -2.299116         3.005945         0.836373
 C        -2.372485         1.522553         0.389333
 H        -3.190168         2.650038         3.534074
 H        -0.164195         1.667046         2.696281
 H        -1.203851         0.329753         2.183427
 H        -0.127854        -0.071841        -0.766228
 H         0.824664         2.570394         0.471278
 H        -0.011928         2.426883        -1.156054
 H        -0.646137         4.189178         1.237768
 H        -1.296204         4.375641        -0.414480
 H        -3.215351         3.602089         0.774808
 H        -3.267524         1.077616        -0.024475
