19
Iteration:  4834
 O        -3.180952         1.910122         3.007834
 C        -2.196876         1.895670         1.920880
 C        -0.757537         1.442853         2.063990
 C        -0.709099         1.258484         0.531819
 O        -0.063299         0.068991         0.043947
 C        -0.281937         2.498007        -0.233167
 C        -0.986318         3.728590         0.474228
 C        -2.312437         2.959005         0.838055
 C        -2.271563         1.482882         0.521170
 H        -3.171481         1.098285         3.466025
 H        -0.042915         1.954867         2.755528
 H        -0.801975         0.433700         2.300629
 H        -0.602674        -0.309914        -0.641272
 H         0.844998         2.639182        -0.242215
 H        -0.586045         2.323594        -1.245087
 H        -0.484683         4.142406         1.291198
 H        -1.228790         4.366179        -0.376650
 H        -3.266655         3.489910         0.845611
 H        -3.134998         0.896660        -0.020116
