19
Iteration:  2994
 O        -2.951082         1.743418         3.018436
 C        -2.087261         1.999773         1.917362
 C        -0.698693         1.515765         2.044192
 C        -0.762434         1.265866         0.494518
 O        -0.231484         0.028307         0.182153
 C        -0.173764         2.560348        -0.151798
 C        -1.125829         3.663898         0.338197
 C        -2.386200         2.956573         0.809126
 C        -2.382896         1.454756         0.513978
 H        -3.844932         1.860956         2.773793
 H         0.066229         2.251998         2.306681
 H        -0.618902         0.559427         2.615306
 H        -0.113751        -0.164145        -0.788807
 H         0.916178         2.613681        -0.008572
 H        -0.259453         2.451726        -1.275684
 H        -0.589661         4.240112         1.116338
 H        -1.488620         4.379949        -0.423775
 H        -3.215192         3.639576         0.786517
 H        -3.099054         0.688381         0.473851
