19
Iteration:  4941
 O        -3.187345         1.920782         2.983350
 C        -2.154554         1.883754         2.037334
 C        -0.713024         1.447964         2.042902
 C        -0.779955         1.291543         0.477689
 O        -0.094408         0.047981         0.057141
 C        -0.165880         2.468948        -0.124249
 C        -1.057303         3.709060         0.289790
 C        -2.303889         2.915223         0.947656
 C        -2.404268         1.483653         0.469265
 H        -2.895749         1.177369         3.470672
 H         0.060233         2.018661         2.613348
 H        -0.698895         0.337071         2.243144
 H        -0.011162        -0.007459        -0.896769
 H         0.806068         2.657000         0.294120
 H        -0.040019         2.513533        -1.223238
 H        -0.686390         4.390619         1.147066
 H        -1.270132         4.426050        -0.495663
 H        -3.192649         3.494538         1.008377
 H        -3.199273         0.970434        -0.127192
