19
Iteration:   193charge 0 multiplicity 1
 O        -3.321501         1.926875         2.903128
 C        -2.218122         1.947827         1.959798
 C        -0.719528         1.493362         2.131260
 C        -0.672081         1.212570         0.597723
 O        -0.206930         0.080653         0.009175
 C        -0.228164         2.430006        -0.203490
 C        -1.008998         3.746044         0.331533
 C        -2.279172         2.873232         0.791849
 C        -2.212171         1.423159         0.619955
 H        -3.197649         1.479338         3.797308
 H         0.038371         2.140412         2.554423
 H        -0.433492         0.690442         2.843597
 H         0.749887         0.150508        -0.154457
 H         0.877280         2.492785        -0.075000
 H        -0.448867         2.247495        -1.274290
 H        -0.386726         4.376122         1.045961
 H        -0.977704         4.425200        -0.600487
 H        -3.262999         3.269160         0.823712
 H        -3.037908         0.972145         0.056394
