19
Iteration:  1988charge 0 multiplicity 1
 O        -3.014907         1.885738         2.999097
 C        -2.126536         1.928502         1.937502
 C        -0.757284         1.462725         2.072534
 C        -0.827024         1.200786         0.488173
 O        -0.220627         0.027096         0.025631
 C        -0.166838         2.547926        -0.142417
 C        -1.030911         3.737661         0.284134
 C        -2.406320         2.998454         0.826549
 C        -2.350299         1.444021         0.538022
 H        -2.679736         1.149821         3.527588
 H         0.137393         1.961929         2.471443
 H        -0.684506         0.460827         2.592013
 H        -0.017110        -0.384566         0.885986
 H         0.835259         2.700320         0.373891
 H         0.058517         2.536358        -1.207923
 H        -0.851245         4.495326         1.064968
 H        -1.181635         4.389279        -0.627413
 H        -3.429413         3.382580         0.747644
 H        -3.020305         0.744626         0.075155
