19
Iteration:  2018charge 0 multiplicity 1
 O        -3.242013         1.803394         3.018510
 C        -2.174937         1.941694         2.056500
 C        -0.747488         1.525149         2.178692
 C        -0.702543         1.262996         0.531504
 O        -0.167852         0.117116        -0.001207
 C        -0.192793         2.472908        -0.358425
 C        -0.956816         3.639661         0.262670
 C        -2.293551         2.962760         0.949227
 C        -2.270301         1.497675         0.513348
 H        -2.815480         1.567041         3.860146
 H         0.061453         2.309469         2.205800
 H        -0.630327         0.601499         2.670375
 H        -0.695344        -0.644719         0.386530
 H         0.850344         2.732981        -0.473554
 H        -0.614681         2.334730        -1.394404
 H        -0.544503         4.194025         1.112729
 H        -1.309856         4.163720        -0.587976
 H        -3.292691         3.372765         0.822762
 H        -2.968434         0.888469        -0.118578
