19
Iteration:  2376
 O        -3.110380         1.885004         3.087261
 C        -2.094434         2.082633         2.044275
 C        -0.661974         1.480996         2.079468
 C        -0.787252         1.223826         0.533678
 O        -0.231652         0.059536        -0.075237
 C        -0.284821         2.480034        -0.240003
 C        -1.072279         3.637194         0.340890
 C        -2.287947         2.924392         0.748454
 C        -2.338755         1.475542         0.682783
 H        -3.292706         0.876266         2.999233
 H         0.269396         2.041936         2.244520
 H        -0.561300         0.539293         2.673297
 H         0.678869         0.192762        -0.379896
 H         0.777429         2.392916        -0.193860
 H        -0.378951         2.284557        -1.312761
 H        -0.472045         4.061837         1.162741
 H        -1.265273         4.442970        -0.339941
 H        -3.247106         3.409756         0.565474
 H        -3.292049         0.875100         0.481158
