19
Iteration:  2619charge 0 multiplicity 1
 O        -3.114869         1.859290         3.021785
 C        -2.070249         1.972836         2.036593
 C        -0.666064         1.381850         2.048423
 C        -0.728338         1.336616         0.524103
 O        -0.346789        -0.023076         0.068121
 C        -0.260705         2.511219        -0.343189
 C        -1.047276         3.744160         0.315497
 C        -2.312542         2.965771         0.893485
 C        -2.259821         1.526513         0.615178
 H        -3.404941         0.954865         2.946376
 H         0.196621         2.009704         2.501284
 H        -0.756364         0.327071         2.331316
 H         0.614272         0.094592         0.072418
 H         0.841543         2.607339        -0.346557
 H        -0.622048         2.123842        -1.329183
 H        -0.414099         4.287931         1.046002
 H        -1.260671         4.473337        -0.464471
 H        -3.265033         3.536473         0.945773
 H        -2.988428         0.820841         0.145891
