19
Iteration:   376charge 0 multiplicity 1
 O        -3.098918         1.786001         2.971839
 C        -2.284574         1.896349         1.910659
 C        -0.791703         1.508312         2.043654
 C        -0.758145         1.326061         0.540137
 O        -0.345242         0.000737         0.123469
 C        -0.027000         2.531068        -0.118530
 C        -1.028318         3.627912         0.329918
 C        -2.300825         3.026085         0.846098
 C        -2.220584         1.588147         0.437659
 H        -2.944204         0.900299         3.345357
 H        -0.099200         2.139778         2.599836
 H        -0.718079         0.453869         2.519586
 H         0.301204        -0.412011         0.742864
 H         1.058901         2.623988         0.209014
 H        -0.221433         2.418518        -1.196519
 H        -0.641863         4.380598         0.990580
 H        -1.195488         4.340149        -0.482727
 H        -3.291716         3.352222         0.549141
 H        -2.796754         1.049760        -0.316543
