19
Iteration:  1448
 O        -3.112002         1.830873         2.909846
 C        -2.104501         2.039577         2.035531
 C        -0.744665         1.322206         2.108214
 C        -0.777089         1.329692         0.548881
 O        -0.271616         0.092252         0.082473
 C        -0.227548         2.490379        -0.202131
 C        -1.048335         3.651436         0.242385
 C        -2.237505         3.030202         0.875726
 C        -2.274987         1.458488         0.573840
 H        -3.480845         0.987583         2.836857
 H         0.063780         1.875739         2.719877
 H        -0.978346         0.414117         2.546532
 H         0.661992        -0.030896         0.289359
 H         0.858034         2.569585        -0.122733
 H        -0.387957         2.145985        -1.266660
 H        -0.455923         4.414974         0.851488
 H        -1.507210         4.230305        -0.585584
 H        -3.117416         3.722206         0.977639
 H        -3.124251         0.920854         0.050568
