19
Iteration:  1976charge 0 multiplicity 1
 O        -2.951885         1.965358         3.048099
 C        -2.157480         2.016556         1.927536
 C        -0.742693         1.353480         1.997280
 C        -0.785717         1.208411         0.515334
 O        -0.260392        -0.028140         0.040977
 C        -0.086809         2.663584        -0.005858
 C        -1.157968         3.752965         0.270841
 C        -2.372940         2.880958         0.800038
 C        -2.336769         1.426433         0.424351
 H        -2.947868         0.998642         3.387782
 H        -0.064181         2.128896         2.368607
 H        -0.861696         0.474622         2.631053
 H         0.223447        -0.508358         0.704596
 H         0.970667         2.784293         0.310882
 H        -0.144648         2.491939        -1.084516
 H        -0.693334         4.368998         1.057181
 H        -1.418337         4.309730        -0.643785
 H        -3.340465         3.357224         0.958369
 H        -3.221478         0.854225         0.085177
