19
Iteration:  3154
 O        -3.127235         1.686717         2.825279
 C        -2.095323         2.110766         2.014421
 C        -0.663415         1.495926         1.987489
 C        -0.729364         1.261429         0.516723
 O        -0.221436        -0.043224         0.268598
 C        -0.221576         2.478130        -0.260443
 C        -1.124837         3.684839         0.280656
 C        -2.356696         3.070465         0.935670
 C        -2.287299         1.505490         0.587513
 H        -3.137608         2.168901         3.614369
 H         0.254190         2.069069         2.371939
 H        -0.483870         0.484720         2.240734
 H        -0.053334        -0.098658        -0.721328
 H         0.904802         2.488437        -0.262716
 H        -0.520613         2.403257        -1.341755
 H        -0.582145         4.238158         1.069786
 H        -1.303429         4.335282        -0.571002
 H        -3.323667         3.449628         1.248192
 H        -3.015982         0.753471         0.471966
