19
Iteration:  2923charge 0 multiplicity 1
 O        -3.083372         1.756011         3.001358
 C        -2.136077         2.076153         1.982889
 C        -0.718777         1.407775         2.063548
 C        -0.869035         1.230690         0.570528
 O        -0.065496         0.176139         0.072156
 C        -0.245782         2.442736        -0.225033
 C        -1.072047         3.626839         0.300880
 C        -2.289912         2.977353         0.833914
 C        -2.384898         1.547726         0.529119
 H        -2.618327         1.393951         3.728006
 H         0.097603         2.022178         2.456106
 H        -0.891625         0.465227         2.597303
 H        -0.628967        -0.327707        -0.570480
 H         0.804235         2.586526         0.007508
 H        -0.258487         2.239116        -1.279486
 H        -0.622112         4.201113         1.141297
 H        -1.087949         4.327805        -0.569169
 H        -3.194514         3.514814         0.727220
 H        -3.196810         0.835587         0.278770
