19
Iteration:  4113charge 0 multiplicity 1
 O        -3.229007         1.702163         3.004778
 C        -2.229867         1.876149         1.947314
 C        -0.731955         1.451838         2.126088
 C        -0.659079         1.332437         0.522736
 O        -0.269126        -0.012130         0.151742
 C        -0.167759         2.561438        -0.254408
 C        -1.044561         3.733445         0.314054
 C        -2.250243         3.017571         0.908532
 C        -2.156267         1.509143         0.431284
 H        -3.055402         2.234663         3.746567
 H        -0.049677         2.241218         2.512375
 H        -0.337042         0.564587         2.452217
 H        -0.870932        -0.292799        -0.559755
 H         0.856961         2.765990        -0.142357
 H        -0.349988         2.319889        -1.353622
 H        -0.641423         4.386305         1.074527
 H        -1.305258         4.478572        -0.460898
 H        -3.285424         3.453846         0.910407
 H        -2.696322         0.891040        -0.262058
