19
Iteration:  3811
 O        -3.199762         1.945418         3.092652
 C        -2.132215         1.950848         2.054854
 C        -0.727202         1.330007         2.144736
 C        -0.726881         1.228784         0.590562
 O        -0.290207         0.129512        -0.174892
 C        -0.035352         2.523677        -0.021230
 C        -1.190590         3.623280         0.147375
 C        -2.303003         2.834938         0.793730
 C        -2.255281         1.443227         0.545734
 H        -3.130001         2.844700         3.335779
 H        -0.014736         1.923445         2.744678
 H        -0.570117         0.333912         2.674574
 H         0.647584         0.309204        -0.275961
 H         0.891674         2.784268         0.622501
 H         0.290163         2.483745        -1.088262
 H        -0.764520         4.479172         0.725429
 H        -1.617888         4.069217        -0.753222
 H        -3.218212         3.417116         0.796095
 H        -2.819509         0.810128        -0.174387
