19
Iteration:  3827charge 0 multiplicity 1
 O        -3.161435         1.936463         2.979745
 C        -2.205988         1.885713         1.976820
 C        -0.634909         1.370111         2.159214
 C        -0.713249         1.241387         0.554766
 O        -0.206435         0.036938        -0.088114
 C        -0.130039         2.522389         0.012649
 C        -1.137642         3.645934         0.188270
 C        -2.328994         2.960099         0.912198
 C        -2.289566         1.438340         0.558571
 H        -3.229778         2.767581         3.404571
 H         0.137884         2.080541         2.402784
 H        -0.714659         0.401449         2.603262
 H         0.098504         0.326219        -0.980065
 H         0.784905         2.740645         0.530944
 H         0.158857         2.332224        -1.037953
 H        -0.778963         4.514026         0.757606
 H        -1.416744         4.038989        -0.836229
 H        -3.357764         3.365413         0.853109
 H        -3.093422         0.959724         0.052180
