19
Iteration:  4738
 O        -3.128438         1.924098         3.062797
 C        -2.170565         1.887822         2.019027
 C        -0.800826         1.244935         2.136827
 C        -0.662179         1.289082         0.623684
 O        -0.259802         0.157356        -0.005951
 C        -0.076765         2.555313        -0.125667
 C        -1.093004         3.700600         0.140121
 C        -2.304588         2.905249         0.869999
 C        -2.225003         1.513141         0.544939
 H        -3.587457         1.037905         3.053115
 H         0.023379         1.847070         2.546203
 H        -0.868267         0.249170         2.685739
 H        -0.455609         0.373538        -0.916871
 H         0.918675         2.965157         0.204973
 H         0.007081         2.427076        -1.189756
 H        -0.562462         4.468896         0.637431
 H        -1.628006         4.033658        -0.791160
 H        -3.256001         3.287411         0.581255
 H        -2.959652         0.738445         0.146572
