19
Iteration:  1681
 O        -3.201448         1.827574         2.870693
 C        -2.122006         1.993779         1.989600
 C        -0.704083         1.436406         2.077262
 C        -0.761778         1.308074         0.535828
 O        -0.197918        -0.014287         0.135986
 C        -0.300665         2.436351        -0.260949
 C        -1.032630         3.715900         0.353254
 C        -2.231697         3.048539         0.889081
 C        -2.254098         1.500175         0.601831
 H        -3.466781         0.877131         2.650383
 H         0.069798         2.076389         2.504351
 H        -0.776460         0.488933         2.631005
 H         0.774654         0.160857        -0.057868
 H         0.819516         2.413190        -0.403687
 H        -0.692298         2.015538        -1.191475
 H        -0.322221         4.242303         1.037737
 H        -1.364401         4.558959        -0.336301
 H        -3.155010         3.633625         1.024202
 H        -3.196410         1.129918         0.169828
