19
Iteration:  3914charge 0 multiplicity 1
 O        -3.252962         1.655442         2.814731
 C        -2.162540         1.971018         2.060468
 C        -0.649731         1.574203         2.040511
 C        -0.727239         1.331743         0.539450
 O        -0.261332         0.003777         0.049412
 C        -0.171146         2.455869        -0.308756
 C        -1.032935         3.664296         0.381688
 C        -2.283107         3.027702         0.880300
 C        -2.297529         1.524912         0.626717
 H        -3.183192         2.082565         3.732745
 H         0.012455         2.334621         2.362846
 H        -0.322821         0.628126         2.496474
 H         0.366047        -0.234751         0.774207
 H         0.874891         2.400871        -0.050539
 H        -0.286020         2.441624        -1.410374
 H        -0.488903         4.105225         1.247600
 H        -1.165430         4.439524        -0.419968
 H        -3.156403         3.620957         0.829958
 H        -3.121771         0.906701         0.316980
