19
Iteration:  3870
 O        -3.124536         1.670973         3.005415
 C        -2.203197         1.885119         1.995730
 C        -0.748106         1.441313         2.061727
 C        -0.713690         1.280364         0.502436
 O        -0.191331         0.046526         0.171181
 C        -0.180321         2.537184        -0.246051
 C        -1.001010         3.713394         0.324287
 C        -2.341383         3.081048         0.736263
 C        -2.252155         1.543516         0.525426
 H        -2.918681         2.455624         3.597863
 H        -0.097495         2.067318         2.579617
 H        -0.838666         0.417511         2.452001
 H        -0.967003        -0.570439         0.272789
 H         0.894397         2.767155        -0.197257
 H        -0.454388         2.335093        -1.304119
 H        -0.449270         4.159130         1.197251
 H        -1.192622         4.541756        -0.420193
 H        -3.358720         3.439798         0.709663
 H        -2.860464         0.995411        -0.147543
