19
Iteration:  1991
 O        -3.034891         1.865546         2.995484
 C        -2.144418         1.914152         1.942341
 C        -0.740091         1.488382         2.091260
 C        -0.801070         1.233580         0.482209
 O        -0.214891         0.040672         0.019901
 C        -0.177931         2.502020        -0.168320
 C        -1.042953         3.729979         0.290042
 C        -2.389687         3.015147         0.816171
 C        -2.348573         1.456597         0.567185
 H        -2.678636         1.212231         3.585581
 H         0.150934         2.002518         2.437991
 H        -0.733005         0.388016         2.517353
 H        -0.051244        -0.417569         0.893294
 H         0.787406         2.601450         0.389127
 H         0.051178         2.518292        -1.234556
 H        -0.739316         4.407735         1.128674
 H        -1.247010         4.354783        -0.640294
 H        -3.395684         3.452417         0.715712
 H        -2.995379         0.785913         0.063484
