19
Iteration:  4761charge 0 multiplicity 1
 O        -3.143436         1.828734         2.965824
 C        -2.106016         1.943042         1.973501
 C        -0.664612         1.487527         2.124984
 C        -0.700482         1.306190         0.517260
 O        -0.266751        -0.000951         0.013846
 C        -0.133347         2.490345        -0.072854
 C        -1.142348         3.692845         0.244992
 C        -2.297803         2.952116         0.865937
 C        -2.311268         1.527356         0.593268
 H        -3.438323         0.931531         2.942631
 H         0.119856         2.069473         2.641592
 H        -0.849886         0.404651         2.626644
 H        -0.025890         0.131303        -0.928349
 H         0.879418         2.566075         0.389961
 H        -0.010258         2.541986        -1.171116
 H        -0.696341         4.356282         1.036182
 H        -1.479750         4.202878        -0.700767
 H        -3.133967         3.621741         0.885388
 H        -3.111379         1.015106         0.005679
