19
Iteration:  3350charge 0 multiplicity 1
 O        -3.000174         1.757969         3.071502
 C        -2.238786         1.860128         1.969144
 C        -0.728976         1.503174         2.141308
 C        -0.750519         1.392255         0.506820
 O        -0.186470        -0.000159         0.229878
 C        -0.256120         2.496763        -0.359655
 C        -1.029834         3.639475         0.323190
 C        -2.348383         3.006469         0.883009
 C        -2.288843         1.514366         0.454151
 H        -3.883760         2.096438         2.998026
 H         0.008494         2.269407         2.542510
 H        -0.567769         0.532157         2.510691
 H        -0.148943        -0.170344        -0.745881
 H         0.846325         2.756710        -0.404477
 H        -0.562236         2.356836        -1.450308
 H        -0.157599         3.974417         0.918905
 H        -1.277924         4.559726        -0.216204
 H        -3.268629         3.523465         0.705443
 H        -2.879788         0.895550        -0.315623
