19
Iteration:  2069charge 0 multiplicity 1
 O        -3.113068         1.736060         3.013089
 C        -2.119630         1.981806         1.969758
 C        -0.596544         1.466477         1.986403
 C        -0.766061         1.267389         0.484576
 O        -0.231854        -0.003386         0.184579
 C        -0.212540         2.481492        -0.220515
 C        -1.077121         3.713899         0.347232
 C        -2.396292         3.021006         0.812081
 C        -2.273128         1.509934         0.587665
 H        -3.187809         2.600925         3.366858
 H         0.106211         2.185202         2.451094
 H        -0.600218         0.376623         2.339910
 H        -0.213030        -0.184782        -0.803477
 H         0.874056         2.506287        -0.045354
 H        -0.331062         2.390441        -1.333267
 H        -0.667768         4.224022         1.236706
 H        -1.342807         4.424557        -0.460763
 H        -3.374476         3.501523         0.762606
 H        -3.027481         0.818534         0.088350
