19
Iteration:    91charge 0 multiplicity 1
 O        -3.315953         1.831586         2.906303
 C        -2.150425         1.983249         2.050810
 C        -0.616948         1.500630         2.165078
 C        -0.722484         1.210544         0.619933
 O        -0.125265         0.135862         0.005025
 C        -0.171918         2.493931        -0.137836
 C        -1.108421         3.702154         0.141705
 C        -2.287457         2.853557         0.812942
 C        -2.209029         1.431862         0.575892
 H        -3.170742         2.412713         3.653384
 H         0.066208         2.236953         2.441950
 H        -0.606444         0.613296         2.778826
 H        -0.767478        -0.597328         0.061062
 H         0.857010         2.603196         0.179325
 H        -0.215449         2.282807        -1.165868
 H        -0.703851         4.550964         0.734723
 H        -1.501748         4.052941        -0.828317
 H        -3.278965         3.356450         1.011471
 H        -2.995333         0.775268         0.167335
