19
Iteration:  4109
 O        -3.219634         1.679067         2.973046
 C        -2.210890         1.892991         1.963717
 C        -0.753167         1.481286         2.118002
 C        -0.661332         1.326639         0.552881
 O        -0.264905        -0.031912         0.158179
 C        -0.170223         2.562712        -0.287804
 C        -1.042720         3.743758         0.321851
 C        -2.256621         3.022431         0.884045
 C        -2.182083         1.542505         0.459600
 H        -2.944704         2.179980         3.825393
 H        -0.075851         2.267374         2.633515
 H        -0.317760         0.411990         2.350899
 H        -0.901011        -0.264455        -0.540169
 H         0.894614         2.906632        -0.179844
 H        -0.319628         2.279421        -1.355357
 H        -0.555200         4.215922         1.217419
 H        -1.294730         4.449138        -0.470320
 H        -3.284283         3.384543         0.852610
 H        -2.707202         0.817366        -0.214146
