19
Iteration:  4162
 O        -3.071834         1.845735         3.062508
 C        -2.111601         2.043288         1.955063
 C        -0.740869         1.313985         2.037554
 C        -0.770163         1.163580         0.533545
 O        -0.139158         0.052002        -0.022159
 C        -0.131099         2.559553        -0.017911
 C        -1.089793         3.694780         0.338291
 C        -2.401550         2.965626         0.756388
 C        -2.324500         1.476475         0.554945
 H        -3.679495         2.658916         2.946717
 H         0.127144         1.526848         2.573245
 H        -1.211185         0.403911         2.560762
 H         0.115828         0.268965        -0.934781
 H         0.897499         2.861407         0.409099
 H        -0.030405         2.388690        -1.060739
 H        -0.868301         4.535920         1.051111
 H        -1.234429         4.252570        -0.595754
 H        -3.428184         3.290008         0.683605
 H        -3.050425         0.713727         0.194461
