19
Iteration:  4714
 O        -3.073898         2.039241         3.018740
 C        -2.146540         1.918322         1.994673
 C        -0.813374         1.252897         2.083299
 C        -0.761827         1.239517         0.493206
 O        -0.082264         0.046501         0.003096
 C        -0.103809         2.552679        -0.013150
 C        -1.144774         3.701384         0.232561
 C        -2.389055         2.950193         0.917027
 C        -2.313831         1.482797         0.497950
 H        -3.202720         1.034919         3.218334
 H        -0.004164         1.792160         2.616616
 H        -0.802605         0.253343         2.291123
 H        -0.458325        -0.124152        -0.907147
 H         0.859775         2.935799         0.420118
 H         0.058839         2.617786        -1.053075
 H        -0.665662         4.501492         0.680533
 H        -1.498000         4.050569        -0.764012
 H        -3.343421         3.472497         1.174025
 H        -2.941080         0.806217        -0.123201
