19
Iteration:  2467
 O        -2.960149         1.894395         3.127204
 C        -2.171039         2.004193         1.974951
 C        -0.711869         1.515263         2.096836
 C        -0.828466         1.247968         0.510253
 O        -0.217339         0.016219        -0.072725
 C        -0.172984         2.468407         0.004764
 C        -1.072691         3.665890         0.249324
 C        -2.409099         2.947567         0.729391
 C        -2.339367         1.434375         0.521085
 H        -2.515694         1.152921         3.562724
 H         0.073063         2.228317         2.407359
 H        -0.604040         0.767533         2.828621
 H        -0.973571        -0.231809        -0.689508
 H         0.848664         2.653544         0.338552
 H        -0.004556         2.420855        -1.090596
 H        -0.449908         4.300057         0.964138
 H        -1.346400         4.336935        -0.603398
 H        -3.367151         3.519224         0.797192
 H        -2.934291         0.758056        -0.062369
