19
Iteration:  1920charge 0 multiplicity 1
 O        -3.151200         2.016298         2.981145
 C        -2.146058         2.013193         2.037666
 C        -0.671134         1.384523         2.161863
 C        -0.737669         1.197685         0.524548
 O        -0.183147         0.065580        -0.146828
 C        -0.205051         2.454024        -0.086342
 C        -1.106132         3.589832         0.244722
 C        -2.352008         2.963630         0.870099
 C        -2.282054         1.466086         0.646225
 H        -3.314301         1.110117         3.248307
 H         0.048421         2.046986         2.751698
 H        -0.819814         0.414930         2.618970
 H         0.573448         0.540083        -0.603441
 H         0.824946         2.470757         0.294289
 H        -0.162249         2.378965        -1.195171
 H        -0.551010         4.322561         0.885581
 H        -1.382790         4.096337        -0.691631
 H        -3.341885         3.404589         0.834282
 H        -3.106460         0.960015         0.084616
