19
Iteration:  2936charge 0 multiplicity 1
 O        -3.101183         1.761755         2.994887
 C        -2.174263         1.969119         2.011505
 C        -0.779050         1.490987         2.134295
 C        -0.722237         1.314778         0.506846
 O        -0.162014         0.088312         0.080802
 C        -0.223492         2.459434        -0.253835
 C        -1.029913         3.672261         0.225086
 C        -2.343705         3.041907         0.847998
 C        -2.267258         1.491089         0.613512
 H        -2.678776         0.930053         3.425692
 H        -0.018444         2.146412         2.589559
 H        -0.679791         0.504481         2.541769
 H        -0.661628        -0.376507        -0.593736
 H         0.881580         2.503206        -0.150595
 H        -0.515056         2.227069        -1.272348
 H        -0.379846         4.059360         1.065891
 H        -1.437664         4.479696        -0.406661
 H        -3.347049         3.557754         0.947993
 H        -3.049993         0.977322        -0.017255
