19
Iteration:  3392charge 0 multiplicity 1
 O        -3.049299         1.896823         3.086611
 C        -2.140772         1.952699         2.003144
 C        -0.750709         1.395213         2.086291
 C        -0.740709         1.190367         0.493148
 O        -0.161996         0.030705        -0.014928
 C        -0.153227         2.524540        -0.149199
 C        -1.156618         3.663545         0.234766
 C        -2.395884         2.999538         0.839450
 C        -2.278329         1.458751         0.582251
 H        -3.674686         2.551227         2.881432
 H        -0.024655         2.014701         2.681940
 H        -0.724188         0.469044         2.570588
 H         0.367348         0.198861        -0.841250
 H         0.762218         2.667552         0.438933
 H         0.095377         2.395409        -1.186137
 H        -0.753170         4.174827         1.136796
 H        -1.345261         4.350739        -0.638611
 H        -3.424228         3.322789         0.704532
 H        -3.079760         0.671796         0.392720
