19
Iteration:   558
 O        -3.150366         1.773133         2.999225
 C        -2.207687         2.021429         1.987998
 C        -0.841572         1.346781         2.115677
 C        -0.807442         1.217835         0.410977
 O        -0.136746        -0.025918         0.161581
 C        -0.103554         2.545282        -0.188744
 C        -0.987817         3.730017         0.310402
 C        -2.259836         3.042275         0.911646
 C        -2.287255         1.564490         0.505700
 H        -3.964849         1.575966         2.539609
 H        -0.083688         1.990484         2.716967
 H        -0.897277         0.406099         2.587633
 H        -0.083643        -0.193288        -0.797684
 H         0.917640         2.521164         0.104560
 H        -0.083545         2.519939        -1.253291
 H        -0.472767         4.478051         0.942115
 H        -1.182178         4.335682        -0.547157
 H        -3.151641         3.676703         0.842203
 H        -3.038422         0.990625         0.022609
