19
Iteration:  1478charge 0 multiplicity 1
 O        -3.237381         1.889678         3.045398
 C        -2.231245         1.945040         2.024890
 C        -0.664575         1.436828         2.073526
 C        -0.722512         1.301513         0.473688
 O        -0.200208        -0.034370         0.066828
 C        -0.226001         2.486342        -0.302860
 C        -1.000044         3.675257         0.383030
 C        -2.294821         2.986825         0.906406
 C        -2.251261         1.513906         0.487980
 H        -3.803383         1.058758         3.243716
 H        -0.051828         2.337762         2.303453
 H        -0.472707         0.695647         2.835695
 H         0.747232         0.105552        -0.229619
 H         0.846046         2.462864        -0.223951
 H        -0.486052         2.212074        -1.354191
 H        -0.214161         4.064412         1.061565
 H        -1.277202         4.479961        -0.288277
 H        -3.155520         3.688417         0.746210
 H        -3.031905         0.938698        -0.082555
