19
Iteration:  3418charge 0 multiplicity 1
 O        -2.958147         1.980454         3.078928
 C        -2.159108         1.884518         2.040066
 C        -0.772870         1.283474         2.108146
 C        -0.743721         1.223415         0.589568
 O        -0.290158         0.097965         0.013384
 C        -0.109658         2.664495        -0.032047
 C        -1.190416         3.660103         0.220331
 C        -2.329724         2.919510         0.809629
 C        -2.271953         1.321212         0.432806
 H        -3.245971         2.872772         3.126184
 H        -0.190550         1.889048         2.837343
 H        -0.678821         0.198440         2.523815
 H         0.128458         0.216058        -0.890176
 H         0.994344         2.967438         0.227554
 H        -0.041421         2.403269        -1.176851
 H        -1.102864         4.583160         0.809926
 H        -1.468498         3.982958        -0.777025
 H        -3.401385         3.211346         0.571368
 H        -2.669130         0.813285        -0.375817
