19
Iteration:  1933charge 0 multiplicity 1
 O        -3.091921         2.084092         3.086607
 C        -2.175760         1.896631         1.989754
 C        -0.760599         1.358620         2.134794
 C        -0.731515         1.255552         0.588337
 O        -0.254180         0.129045        -0.134849
 C        -0.106116         2.501419        -0.093743
 C        -1.130059         3.650062         0.244168
 C        -2.227866         2.843511         0.800915
 C        -2.332354         1.387604         0.575962
 H        -3.581100         1.194957         3.192566
 H         0.044652         1.989936         2.656999
 H        -0.701155         0.320433         2.625954
 H         0.636323         0.162960        -0.440011
 H         0.903320         2.887370         0.238171
 H        -0.053631         2.288631        -1.173190
 H        -1.015146         4.504573         0.959881
 H        -1.497187         4.171225        -0.707635
 H        -3.113677         3.467387         0.873895
 H        -3.094564         0.766497         0.026502
