19
Iteration:   727charge 0 multiplicity 1
 O        -3.167112         1.923485         3.007576
 C        -2.217117         1.933829         1.944745
 C        -0.773095         1.418859         2.047517
 C        -0.674015         1.236129         0.549707
 O        -0.284725         0.019083        -0.006933
 C        -0.091183         2.533542        -0.110909
 C        -0.964168         3.621256         0.371017
 C        -2.329570         2.922008         0.870334
 C        -2.264877         1.482253         0.539872
 H        -3.994645         1.889123         2.542445
 H        -0.075740         2.132526         2.396014
 H        -0.773281         0.529093         2.737153
 H         0.379348         0.223537        -0.692476
 H         0.967328         2.717490         0.088836
 H        -0.311604         2.433343        -1.138453
 H        -0.625194         4.054219         1.320244
 H        -1.204220         4.532554        -0.259866
 H        -3.132458         3.629202         0.956608
 H        -2.813616         0.875350        -0.140833
