19
Iteration:  1169
 O        -3.082025         1.981041         3.061256
 C        -2.266844         1.921711         1.952622
 C        -0.725132         1.484645         1.983937
 C        -0.845937         1.219143         0.465487
 O        -0.175050        -0.032613         0.042101
 C        -0.111871         2.578601        -0.135124
 C        -1.042064         3.693581         0.397514
 C        -2.318157         2.929032         0.832668
 C        -2.307949         1.466144         0.446760
 H        -3.099208         1.016436         3.259224
 H         0.137589         2.133089         2.372028
 H        -0.635467         0.457257         2.428206
 H        -0.088140        -0.603128         0.868651
 H         0.937542         2.526538         0.277644
 H        -0.198205         2.593484        -1.227493
 H        -0.636985         4.188485         1.325414
 H        -1.116676         4.534759        -0.368135
 H        -3.327871         3.295181         0.672438
 H        -3.026558         1.053717        -0.230204
