19
Iteration:  4321
 O        -3.132383         1.823774         3.016525
 C        -2.158751         1.960343         1.923224
 C        -0.784254         1.413088         2.103075
 C        -0.734202         1.227786         0.542875
 O        -0.290189         0.077220         0.028585
 C        -0.122442         2.539394        -0.139394
 C        -1.053967         3.733097         0.355962
 C        -2.354694         2.934667         0.743897
 C        -2.242077         1.475913         0.545673
 H        -2.666912         1.308513         3.774921
 H         0.102997         2.003037         2.509459
 H        -0.889580         0.449869         2.473689
 H         0.643526         0.210691        -0.181476
 H         0.905564         2.541299        -0.002510
 H        -0.160309         2.444543        -1.271151
 H        -0.726179         4.421729         1.093752
 H        -1.282515         4.356987        -0.512037
 H        -3.290222         3.441552         0.769400
 H        -3.060106         0.872652         0.081950
