19
Iteration:  4079charge 0 multiplicity 1
 O        -3.135513         1.576532         2.813753
 C        -2.135114         2.091715         1.960784
 C        -0.684216         1.533599         2.045158
 C        -0.857974         1.270063         0.528468
 O        -0.197604         0.076168         0.226198
 C        -0.234447         2.432400        -0.193249
 C        -0.974953         3.709636         0.422680
 C        -2.294617         3.076592         0.826694
 C        -2.320292         1.486982         0.527093
 H        -2.900322         1.962198         3.685409
 H         0.112400         2.283956         2.352102
 H        -0.563987         0.571921         2.460062
 H        -0.447661        -0.304442        -0.659948
 H         0.795389         2.525621        -0.091525
 H        -0.439114         2.441301        -1.336376
 H        -0.439725         4.053696         1.299659
 H        -1.065268         4.374104        -0.435776
 H        -3.276584         3.633158         0.802172
 H        -3.008368         0.676804         0.237870
