19
Iteration:  1644
 O        -3.082263         1.797291         3.113506
 C        -2.241821         1.925427         1.959741
 C        -0.819131         1.560261         2.042791
 C        -0.760890         1.309387         0.537028
 O        -0.301481         0.035930         0.101961
 C        -0.143154         2.466592        -0.266325
 C        -0.962573         3.707445         0.368118
 C        -2.257552         2.947745         0.779632
 C        -2.273045         1.414427         0.484457
 H        -3.762604         1.207316         2.821056
 H        -0.247080         2.426771         2.555756
 H        -0.495194         0.587659         2.338982
 H         0.651765         0.103662         0.346974
 H         0.904320         2.684729        -0.121372
 H        -0.358907         2.390932        -1.385602
 H        -0.309191         3.966842         1.237514
 H        -1.061822         4.537286        -0.305676
 H        -3.155061         3.542524         0.692089
 H        -3.113586         1.118938        -0.123699
