19
Iteration:   130charge 0 multiplicity 1
 O        -2.966439         1.880151         3.131563
 C        -2.186626         1.957106         1.925979
 C        -0.853850         1.435407         2.070222
 C        -0.732901         1.271251         0.555569
 O        -0.122218         0.053192         0.098338
 C        -0.131551         2.560733        -0.050657
 C        -1.134563         3.659998         0.227969
 C        -2.403810         2.921816         0.718474
 C        -2.246047         1.449332         0.414246
 H        -3.933579         1.918386         2.871914
 H         0.033071         2.185510         2.535931
 H        -0.872666         0.552702         2.746675
 H        -0.573505        -0.752054         0.418690
 H         0.910874         2.668022         0.331966
 H         0.116368         2.436025        -1.159135
 H        -0.846800         4.507870         0.838155
 H        -1.422485         4.123838        -0.722857
 H        -3.391055         3.386864         0.771271
 H        -2.896818         0.851556        -0.285659
