19
Iteration:  1748charge 0 multiplicity 1
 O        -2.948847         2.005473         3.051395
 C        -2.153341         1.934396         1.892748
 C        -0.803769         1.439063         2.034761
 C        -0.757839         1.231045         0.503141
 O        -0.225129         0.058510        -0.017291
 C        -0.147607         2.534692         0.086628
 C        -1.125302         3.660280         0.282498
 C        -2.348004         2.921716         0.672744
 C        -2.409890         1.404551         0.497874
 H        -2.838730         1.163117         3.487593
 H        -0.032610         1.987876         2.518062
 H        -0.963981         0.439967         2.597996
 H         0.625039        -0.225444         0.287435
 H         0.757065         2.592475         0.766809
 H         0.192151         2.559328        -0.957745
 H        -0.979660         4.243260         1.210638
 H        -1.327062         4.425774        -0.519050
 H        -3.256492         3.477673         0.770471
 H        -3.025915         0.688891        -0.001327
