19
Iteration:  4881
 O        -3.073881         1.917134         3.013478
 C        -2.184984         1.892447         1.973371
 C        -0.756556         1.346617         2.117582
 C        -0.689252         1.295988         0.517428
 O        -0.272782         0.073584         0.005980
 C        -0.082971         2.617520        -0.002824
 C        -1.149635         3.675413         0.242357
 C        -2.284941         2.912445         0.865131
 C        -2.259152         1.484385         0.497942
 H        -3.551021         1.076722         3.287986
 H        -0.012093         1.976982         2.517735
 H        -0.524763         0.397222         2.596536
 H        -0.577418        -0.038446        -0.929298
 H         0.938002         2.829844         0.376299
 H         0.032644         2.588087        -1.107727
 H        -0.811632         4.380114         0.957128
 H        -1.434054         4.077251        -0.748372
 H        -3.277566         3.263888         0.554759
 H        -2.921917         0.783664         0.021423
