19
Iteration:  1021
 O        -2.997319         1.962297         3.093140
 C        -2.184117         1.877839         1.900291
 C        -0.784271         1.358809         2.034488
 C        -0.795867         1.192377         0.535070
 O        -0.143719         0.119519        -0.004517
 C        -0.142188         2.502000        -0.092346
 C        -1.024051         3.691304         0.340890
 C        -2.353305         2.964231         0.828775
 C        -2.402459         1.458114         0.469950
 H        -3.833582         2.286632         2.813926
 H         0.049985         1.798814         2.548466
 H        -1.010048         0.341511         2.396217
 H         0.305966        -0.454974         0.655855
 H         0.945504         2.429886         0.138732
 H        -0.161211         2.439597        -1.209845
 H        -0.743158         4.459092         1.062617
 H        -1.241170         4.265562        -0.546706
 H        -3.281040         3.498533         1.063624
 H        -3.113201         0.971222        -0.184143
