19
Iteration:   730charge 0 multiplicity 1
 O        -3.194682         1.928308         3.003621
 C        -2.233524         1.925724         1.958326
 C        -0.758557         1.417692         2.071747
 C        -0.638008         1.221117         0.524093
 O        -0.296519         0.019507        -0.014049
 C        -0.100489         2.530962        -0.135671
 C        -0.953200         3.643150         0.392291
 C        -2.307290         2.931970         0.863296
 C        -2.245527         1.464312         0.557590
 H        -4.128954         1.972907         2.656097
 H        -0.057479         2.162241         2.496029
 H        -0.776157         0.540818         2.724419
 H         0.395051         0.177832        -0.703086
 H         0.955594         2.777471        -0.012470
 H        -0.298023         2.511224        -1.257991
 H        -0.649941         4.020329         1.340371
 H        -1.261764         4.456604        -0.300969
 H        -3.217595         3.609042         0.965059
 H        -2.842650         0.859000        -0.153105
