19
Iteration:  2187charge 0 multiplicity 1
 O        -3.073228         1.872403         3.105824
 C        -2.203699         1.859338         2.022654
 C        -0.838918         1.521573         2.060240
 C        -0.732701         1.293316         0.493882
 O        -0.213157         0.094529        -0.039634
 C        -0.148978         2.486886        -0.241536
 C        -0.986253         3.675634         0.260449
 C        -2.289195         2.959585         0.895520
 C        -2.324800         1.470791         0.546352
 H        -2.633820         1.422105         3.857477
 H        -0.277070         2.250643         2.622353
 H        -0.551065         0.479957         2.373472
 H        -0.892905        -0.578298         0.145869
 H         0.924900         2.638895        -0.013510
 H        -0.204576         2.388169        -1.314015
 H        -0.466557         4.212023         1.040266
 H        -1.154807         4.282686        -0.680766
 H        -3.321645         3.253507         0.778520
 H        -3.124277         0.859055         0.041569
