19
Iteration:  2552charge 0 multiplicity 1
 O        -2.965026         1.887762         3.170837
 C        -2.232698         2.003421         1.991881
 C        -0.783253         1.467895         2.073526
 C        -0.815976         1.291456         0.462444
 O        -0.186407         0.138588        -0.074032
 C        -0.109633         2.409277        -0.186940
 C        -1.079264         3.582914         0.251749
 C        -2.346400         2.951196         0.871945
 C        -2.293212         1.541576         0.514797
 H        -3.099347         0.948266         3.482832
 H         0.069927         2.133442         2.508399
 H        -0.765466         0.430732         2.504512
 H        -0.612793        -0.650953         0.298025
 H         0.900384         2.522008         0.195286
 H        -0.117370         2.215316        -1.296418
 H        -0.583944         4.283517         0.923363
 H        -1.505201         4.232640        -0.491611
 H        -3.416324         3.313168         0.937280
 H        -3.094509         1.068487        -0.003391
