19
Iteration:  1688charge 0 multiplicity 1
 O        -3.211612         1.851399         2.841573
 C        -2.117369         1.947882         1.976975
 C        -0.694167         1.406797         2.117856
 C        -0.761248         1.263728         0.540447
 O        -0.252755         0.047346         0.144456
 C        -0.228800         2.483100        -0.303523
 C        -1.011980         3.763527         0.326843
 C        -2.209284         2.990412         0.916075
 C        -2.280660         1.486681         0.650708
 H        -3.550851         0.991843         2.993027
 H         0.179295         2.123763         2.426648
 H        -0.761512         0.487152         2.651059
 H         0.670193         0.122741        -0.172328
 H         0.839186         2.303027        -0.385961
 H        -0.628157         2.175482        -1.347917
 H        -0.537571         4.348214         1.152621
 H        -1.478825         4.448461        -0.370696
 H        -3.214835         3.449596         0.907051
 H        -3.027452         0.947046         0.032087
