19
Iteration:  3093charge 0 multiplicity 1
 O        -3.083346         1.783967         3.022148
 C        -2.162445         2.002818         1.945391
 C        -0.707397         1.558417         2.166384
 C        -0.738039         1.290734         0.562284
 O        -0.280614         0.043159        -0.001761
 C        -0.121351         2.523941        -0.181962
 C        -1.102745         3.606981         0.295288
 C        -2.352038         2.914099         0.780021
 C        -2.220707         1.376165         0.587026
 H        -2.879951         2.350391         3.788770
 H        -0.016946         2.272714         2.549416
 H        -0.557925         0.531257         2.590533
 H        -0.643753         0.093744        -0.933312
 H         0.885565         2.798404         0.178355
 H        -0.079277         2.479406        -1.283173
 H        -0.801633         4.269376         1.123577
 H        -1.373197         4.327461        -0.492469
 H        -3.306895         3.303507         0.575456
 H        -3.124225         0.929792         0.088479
