19
Iteration:  1466charge 0 multiplicity 1
 O        -3.211600         1.873665         2.989957
 C        -2.167060         1.904016         2.030069
 C        -0.737750         1.479601         2.109640
 C        -0.743148         1.222969         0.512984
 O        -0.191128         0.025342         0.067030
 C        -0.176637         2.450085        -0.361124
 C        -0.970354         3.670743         0.291691
 C        -2.284057         3.027004         0.940620
 C        -2.327414         1.558414         0.597975
 H        -3.594205         1.035067         2.781476
 H         0.018956         2.050685         2.648068
 H        -0.675582         0.374889         2.355532
 H         0.768936         0.175797         0.037811
 H         0.869825         2.736792        -0.248703
 H        -0.397752         2.325619        -1.434395
 H        -0.467728         4.176922         1.117615
 H        -1.257193         4.449113        -0.419294
 H        -3.327069         3.381736         0.954736
 H        -3.200821         1.035663         0.200001
