19
Iteration:  4500charge 0 multiplicity 1
 O        -3.095924         1.941647         3.048289
 C        -2.238689         1.904209         2.000126
 C        -0.790083         1.332967         2.128813
 C        -0.723880         1.337268         0.579230
 O        -0.265144         0.168157        -0.032095
 C        -0.145702         2.504996        -0.197819
 C        -1.073370         3.629293         0.289159
 C        -2.287418         2.931655         0.859405
 C        -2.209994         1.446518         0.522548
 H        -3.519648         1.018073         3.090507
 H        -0.121112         1.962389         2.749117
 H        -0.864333         0.203001         2.420044
 H         0.641883         0.472202        -0.115743
 H         1.046044         2.439189        -0.195930
 H        -0.549717         2.080204        -1.278049
 H        -0.549975         4.278440         1.151218
 H        -1.281486         4.354299        -0.510303
 H        -3.200072         3.447827         0.795177
 H        -2.778164         0.832737        -0.175926
