19
Iteration:  3686charge 0 multiplicity 1
 O        -3.152814         1.709556         2.869513
 C        -2.108255         1.980062         2.016143
 C        -0.631122         1.489869         2.044477
 C        -0.737923         1.296216         0.486131
 O        -0.212335        -0.055905         0.239022
 C        -0.235234         2.531028        -0.329077
 C        -1.136686         3.679636         0.287164
 C        -2.266712         2.981000         0.939867
 C        -2.308694         1.559394         0.561093
 H        -3.105073         2.358672         3.534516
 H         0.103793         2.154788         2.564576
 H        -0.813834         0.605901         2.523305
 H         0.283917         0.292800        -0.519867
 H         0.776573         2.676511        -0.063764
 H        -0.404542         2.270441        -1.394687
 H        -0.678023         4.159902         1.098025
 H        -1.356934         4.396884        -0.493002
 H        -3.310761         3.462942         0.910704
 H        -3.137320         0.822727         0.397757
