19
Iteration:  4897
 O        -3.045366         1.856346         3.079394
 C        -2.161211         1.952838         1.963051
 C        -0.747466         1.332922         2.133672
 C        -0.728702         1.246117         0.611130
 O        -0.302823         0.002233         0.034822
 C        -0.031156         2.647902        -0.049160
 C        -1.169508         3.727562         0.204400
 C        -2.376260         2.947917         0.773903
 C        -2.221475         1.471394         0.422863
 H        -3.079096         0.913529         3.213733
 H         0.052247         2.012637         2.655434
 H        -1.064937         0.305056         2.622898
 H        -0.288592         0.288344        -0.891900
 H         0.888046         2.864653         0.509297
 H         0.182224         2.361287        -1.108877
 H        -0.768744         4.675169         0.824179
 H        -1.517011         4.269518        -0.678837
 H        -3.302945         3.405655         1.095746
 H        -2.879718         1.123459        -0.418478
