19
Iteration:  3475
 O        -3.128006         1.771034         3.008017
 C        -2.112677         1.982348         1.983698
 C        -0.730136         1.430899         2.095601
 C        -0.724435         1.223315         0.560107
 O        -0.107576         0.099067         0.045930
 C        -0.209480         2.474985        -0.165754
 C        -1.105015         3.711701         0.178839
 C        -2.303058         2.994670         0.823132
 C        -2.387963         1.453919         0.635381
 H        -3.090832         2.521236         3.666861
 H         0.033863         2.042328         2.605591
 H        -0.833441         0.331125         2.456450
 H        -0.248646        -0.110373        -0.874973
 H         0.798900         2.666584         0.318354
 H        -0.122254         2.150270        -1.286868
 H        -0.631408         4.419959         0.890350
 H        -1.361937         4.329288        -0.678233
 H        -3.256308         3.547712         0.831121
 H        -3.221571         0.791490         0.241763
