19
Iteration:  1158
 O        -3.091612         1.870855         3.057516
 C        -2.214792         1.969797         1.895967
 C        -0.751550         1.475040         2.007098
 C        -0.729781         1.286427         0.468430
 O        -0.226358         0.017129         0.063000
 C        -0.178554         2.498636        -0.137293
 C        -0.986636         3.681129         0.405275
 C        -2.357116         2.989596         0.782406
 C        -2.335923         1.427559         0.457902
 H        -2.930330         1.047417         3.660890
 H         0.017443         2.266999         2.322325
 H        -0.603622         0.577717         2.685843
 H        -0.245071        -0.535277         0.853891
 H         0.906173         2.545920         0.242344
 H         0.034537         2.487950        -1.208246
 H        -0.452352         4.234958         1.221541
 H        -1.250586         4.398363        -0.453259
 H        -3.222873         3.637912         0.737591
 H        -3.098573         1.072346        -0.193940
