19
Iteration:  2006charge 0 multiplicity 1
 O        -3.175689         1.800869         3.032349
 C        -2.190139         2.005950         2.000672
 C        -0.707626         1.503760         2.024862
 C        -0.743084         1.294947         0.547695
 O        -0.199434         0.110108         0.007297
 C        -0.139968         2.476751        -0.232930
 C        -1.083771         3.580319         0.272439
 C        -2.296235         2.952067         0.856709
 C        -2.285265         1.510769         0.532978
 H        -2.715721         1.403782         3.763629
 H        -0.059887         2.185015         2.635287
 H        -0.581159         0.580402         2.588645
 H        -0.274608        -0.654233         0.625119
 H         0.916400         2.642740        -0.153380
 H        -0.358163         2.132569        -1.285242
 H        -0.443754         4.165865         0.974893
 H        -1.329583         4.372169        -0.387427
 H        -3.198744         3.550051         0.883413
 H        -3.182941         1.034130         0.046326
