19
Iteration:  3349
 O        -2.998825         1.756954         3.070227
 C        -2.242912         1.857561         1.966680
 C        -0.728820         1.503050         2.149100
 C        -0.744555         1.400214         0.515777
 O        -0.190716        -0.007998         0.233500
 C        -0.251733         2.517849        -0.375027
 C        -1.024704         3.641038         0.324036
 C        -2.350322         3.008045         0.875033
 C        -2.293948         1.507508         0.456388
 H        -3.858181         2.074472         3.015909
 H         0.024058         2.239186         2.568739
 H        -0.565030         0.539440         2.503163
 H        -0.173893        -0.215729        -0.749079
 H         0.841517         2.739455        -0.408733
 H        -0.573417         2.361597        -1.439404
 H        -0.144054         3.949316         0.930513
 H        -1.298439         4.568975        -0.228237
 H        -3.279010         3.517580         0.727433
 H        -2.872617         0.890894        -0.343234
