19
Iteration:  2671
 O        -2.965227         1.930829         3.160893
 C        -2.105835         1.947663         1.928498
 C        -0.671941         1.402212         2.029516
 C        -0.789355         1.227035         0.480682
 O        -0.318891         0.008360        -0.047979
 C        -0.130150         2.555671        -0.019021
 C        -1.136491         3.652301         0.269009
 C        -2.360682         2.945248         0.837150
 C        -2.319208         1.467322         0.564759
 H        -3.838636         1.589683         2.898677
 H         0.144164         2.013004         2.303584
 H        -0.694397         0.443383         2.546198
 H         0.143443         0.271287        -0.871512
 H         0.813477         2.709457         0.501761
 H         0.128837         2.425676        -1.099134
 H        -0.796130         4.432147         0.947695
 H        -1.218557         4.214292        -0.653114
 H        -3.363390         3.492392         0.742873
 H        -3.186261         0.888017         0.160609
