19
Iteration:  2353
 O        -2.942380         2.029048         3.133096
 C        -2.161195         1.874331         1.909905
 C        -0.739568         1.451428         2.050151
 C        -0.751542         1.260219         0.499241
 O        -0.305152         0.026663        -0.038950
 C        -0.173261         2.544727        -0.140754
 C        -1.171386         3.669189         0.314124
 C        -2.371334         2.938947         0.897711
 C        -2.305805         1.407121         0.470091
 H        -2.923127         1.189472         3.554330
 H         0.028710         1.974179         2.635523
 H        -0.865034         0.392257         2.464984
 H         0.673224        -0.077351         0.128857
 H         0.876272         2.694399         0.075141
 H        -0.114109         2.410676        -1.227231
 H        -0.536591         4.235876         0.942570
 H        -1.367215         4.307847        -0.530169
 H        -3.384817         3.415130         0.955575
 H        -2.923825         0.700796        -0.150116
