19
Iteration:  2493
 O        -3.064489         2.161784         3.093770
 C        -2.175286         1.892494         2.040973
 C        -0.721295         1.353039         2.125925
 C        -0.729955         1.286141         0.507382
 O        -0.224078         0.106330        -0.161249
 C        -0.093451         2.574332        -0.099621
 C        -1.170192         3.574813         0.230139
 C        -2.306097         2.815726         0.914293
 C        -2.259282         1.370247         0.548653
 H        -3.099832         1.306361         3.596615
 H         0.088609         1.840097         2.646599
 H        -0.703823         0.258601         2.434704
 H        -1.085206        -0.132642        -0.610932
 H         0.924678         2.802467         0.283984
 H         0.074867         2.587203        -1.171699
 H        -0.661293         4.388164         0.746617
 H        -1.678652         3.989076        -0.679483
 H        -3.247749         3.339353         0.958842
 H        -3.100823         0.819685         0.024868
