19
Iteration:  1387charge 0 multiplicity 1
 O        -3.063276         2.035653         3.027623
 C        -2.114061         1.874812         1.923978
 C        -0.706196         1.442255         2.069553
 C        -0.739676         1.280498         0.498629
 O        -0.342925         0.032709        -0.029835
 C        -0.079235         2.494264         0.037397
 C        -1.088196         3.651076         0.345141
 C        -2.425725         2.882026         0.721594
 C        -2.329072         1.448390         0.484581
 H        -2.959985         1.351063         3.702461
 H        -0.081429         2.127376         2.595496
 H        -0.520613         0.375345         2.506944
 H         0.635765         0.071769        -0.086513
 H         0.934564         2.710551         0.493700
 H         0.024872         2.283406        -1.028171
 H        -0.855978         4.270679         1.200321
 H        -1.225643         4.350361        -0.513605
 H        -3.299282         3.502725         0.768248
 H        -2.957237         0.864781        -0.217985
