19
Iteration:  1941charge 0 multiplicity 1
 O        -3.047117         2.105596         3.106623
 C        -2.167612         1.853253         2.010020
 C        -0.804524         1.328431         2.131826
 C        -0.690692         1.273819         0.561586
 O        -0.307844         0.111346        -0.102007
 C        -0.056802         2.588724        -0.063716
 C        -1.124478         3.686809         0.199130
 C        -2.335008         2.829011         0.826182
 C        -2.291694         1.346676         0.499325
 H        -3.660511         1.291456         3.199424
 H         0.046441         1.937782         2.492985
 H        -0.704139         0.375318         2.565591
 H         0.636826         0.212250        -0.156047
 H         0.972887         2.710172         0.243302
 H        -0.039023         2.337126        -1.145647
 H        -0.624329         4.426587         0.849160
 H        -1.533221         4.233077        -0.621557
 H        -3.303841         3.326476         0.895220
 H        -3.044668         0.684549        -0.004698
