19
Iteration:  4296
 O        -3.167871         1.725566         2.895471
 C        -2.159262         1.892513         1.948819
 C        -0.715505         1.554448         2.037658
 C        -0.742906         1.269717         0.520110
 O        -0.230045        -0.064986         0.088542
 C        -0.201238         2.576865        -0.191297
 C        -1.041411         3.618205         0.315503
 C        -2.291532         3.028126         0.954185
 C        -2.360013         1.591589         0.531459
 H        -2.794002         1.581917         3.812311
 H        -0.057127         2.339042         2.334303
 H        -0.535029         0.497929         2.399125
 H         0.684199        -0.063820         0.340773
 H         0.884693         2.706475         0.120519
 H        -0.056666         2.416611        -1.318538
 H        -0.484066         4.319540         0.978604
 H        -1.570405         4.292583        -0.490806
 H        -3.136415         3.744285         1.212883
 H        -3.017684         1.087128        -0.173407
