19
Iteration:  1100charge 0 multiplicity 1
 O        -3.225171         1.754122         2.900319
 C        -2.103080         1.930732         2.047457
 C        -0.664589         1.443407         2.185225
 C        -0.718921         1.334168         0.498344
 O        -0.208561         0.007589         0.061494
 C        -0.136613         2.535992        -0.254125
 C        -1.012166         3.667866         0.230127
 C        -2.331411         3.011478         0.979532
 C        -2.260715         1.493658         0.551093
 H        -3.539633         2.584752         3.181249
 H         0.107287         2.067717         2.510399
 H        -0.442366         0.350200         2.438531
 H        -1.055390        -0.473976        -0.166293
 H         0.958082         2.553482        -0.019155
 H        -0.371461         2.289389        -1.303908
 H        -0.590661         4.404883         0.912608
 H        -1.564153         4.252097        -0.525923
 H        -3.247764         3.629562         1.031463
 H        -3.156521         1.018639         0.064767
