19
Iteration:  3279
 O        -3.046299         1.861275         3.142132
 C        -2.238851         1.901960         2.025087
 C        -0.717138         1.503327         2.085390
 C        -0.789766         1.280229         0.537798
 O        -0.218269         0.068283         0.006953
 C        -0.099384         2.545330        -0.148152
 C        -1.031124         3.636140         0.162658
 C        -2.291667         2.929605         0.881180
 C        -2.306536         1.383787         0.552357
 H        -3.947363         2.091622         3.006894
 H        -0.084501         2.279644         2.504597
 H        -0.566462         0.484466         2.649074
 H        -0.454002         0.147176        -0.960520
 H         0.898081         2.597884         0.285970
 H         0.125804         2.417355        -1.235278
 H        -0.833466         4.600587         0.703502
 H        -1.517707         4.002817        -0.788997
 H        -3.266747         3.441310         0.625348
 H        -2.998474         0.772790         0.044645
