19
Iteration:  4311
 O        -3.122183         1.781601         2.929880
 C        -2.186102         1.959787         1.964106
 C        -0.711152         1.440867         2.064693
 C        -0.794207         1.280104         0.476451
 O        -0.256525         0.044517         0.076443
 C        -0.110386         2.449645        -0.153348
 C        -1.109794         3.742536         0.337473
 C        -2.331810         3.030894         0.912456
 C        -2.282466         1.482835         0.476677
 H        -2.635370         1.436057         3.751126
 H         0.070882         2.138932         2.546681
 H        -0.725645         0.538074         2.609316
 H         0.730745         0.117439         0.034643
 H         0.857604         2.603011         0.190633
 H        -0.220588         2.330213        -1.233325
 H        -0.580166         4.253126         1.099701
 H        -1.210094         4.322952        -0.536661
 H        -3.338101         3.330762         0.758477
 H        -3.169256         0.948872         0.092999
