19
Iteration:  1639
 O        -3.063804         1.819107         3.105179
 C        -2.231728         1.914793         1.937747
 C        -0.794117         1.583066         2.039867
 C        -0.767021         1.280787         0.536669
 O        -0.343169         0.067069         0.108811
 C        -0.192449         2.523968        -0.208048
 C        -0.931621         3.677639         0.345025
 C        -2.223273         2.909997         0.797212
 C        -2.284541         1.408769         0.463252
 H        -3.884575         1.222544         2.940810
 H        -0.217804         2.347859         2.465283
 H        -0.462366         0.506819         2.307280
 H         0.615032        -0.044103         0.309092
 H         0.908024         2.698639        -0.015282
 H        -0.235789         2.444586        -1.278071
 H        -0.495806         4.138627         1.245389
 H        -1.015725         4.539023        -0.366514
 H        -3.242123         3.333327         0.696605
 H        -2.945701         0.923227        -0.299968
