19
Iteration:  3833charge 0 multiplicity 1
 O        -3.165225         1.891961         2.955508
 C        -2.126947         1.921673         1.947016
 C        -0.716691         1.375875         2.077815
 C        -0.732347         1.223867         0.547910
 O        -0.178360         0.025325        -0.036930
 C        -0.128089         2.545622         0.006992
 C        -1.140388         3.643067         0.199311
 C        -2.347647         2.958211         0.929796
 C        -2.274998         1.460166         0.604417
 H        -3.063432         2.847458         3.299748
 H         0.058697         2.085615         2.497481
 H        -0.675041         0.420742         2.727858
 H        -0.204037         0.235757        -1.007194
 H         0.924195         2.557048         0.457364
 H        -0.015493         2.595006        -1.101841
 H        -0.734093         4.513756         0.770815
 H        -1.326111         4.048589        -0.786547
 H        -3.325509         3.463017         0.898831
 H        -3.117451         0.881862         0.152604
