19
Iteration:  1386charge 0 multiplicity 1
 O        -3.062169         2.035303         3.028440
 C        -2.113956         1.880899         1.915057
 C        -0.709427         1.436881         2.074811
 C        -0.737038         1.266872         0.509208
 O        -0.336939         0.031871        -0.030739
 C        -0.086448         2.497607         0.025228
 C        -1.088103         3.652489         0.353167
 C        -2.424579         2.881600         0.718333
 C        -2.334533         1.453807         0.490226
 H        -2.959708         1.364702         3.676513
 H        -0.073986         2.122526         2.613633
 H        -0.531353         0.376191         2.487412
 H         0.621501         0.098255        -0.095622
 H         0.917602         2.743570         0.484564
 H         0.032418         2.275953        -1.036851
 H        -0.826675         4.278028         1.197728
 H        -1.229919         4.341523        -0.511426
 H        -3.293232         3.513690         0.781569
 H        -2.932138         0.850230        -0.236693
