19
Iteration:  1304
 O        -3.172309         1.817894         2.986329
 C        -2.174286         1.998552         1.974196
 C        -0.656134         1.516420         2.060353
 C        -0.751600         1.255571         0.510954
 O        -0.251113        -0.074810         0.148803
 C        -0.182943         2.576516        -0.209758
 C        -0.976397         3.665705         0.397938
 C        -2.302467         3.015550         0.820836
 C        -2.276571         1.485446         0.515527
 H        -3.387098         0.920354         3.174043
 H         0.174782         2.240630         2.301656
 H        -0.672383         0.634208         2.613831
 H        -0.593909        -0.170135        -0.748450
 H         0.887531         2.544616        -0.254773
 H        -0.426611         2.351841        -1.279491
 H        -0.497966         4.248860         1.228297
 H        -1.257180         4.427242        -0.340278
 H        -3.137706         3.718343         0.683687
 H        -3.048664         0.907083        -0.008729
