19
Iteration:  2871charge 0 multiplicity 1
 O        -3.019308         1.983605         3.125361
 C        -2.194655         1.882636         1.962878
 C        -0.652490         1.303243         2.104606
 C        -0.682501         1.336550         0.474986
 O        -0.355146         0.070427         0.010564
 C        -0.143433         2.597018        -0.078093
 C        -1.151929         3.696285         0.333750
 C        -2.329504         2.819659         0.854530
 C        -2.204748         1.405689         0.447514
 H        -3.780083         2.577559         2.828279
 H        -0.102754         2.035778         2.695407
 H        -0.664406         0.291597         2.387562
 H        -0.000925         0.035790        -0.928387
 H         0.948899         2.814402         0.068169
 H        -0.283423         2.384170        -1.174378
 H        -0.818460         4.361174         1.153764
 H        -1.355490         4.099720        -0.650950
 H        -3.394478         3.175957         0.846161
 H        -2.822297         0.743572        -0.227404
