19
Iteration:  3072charge 0 multiplicity 1
 O        -3.114416         1.923086         2.929702
 C        -2.073108         2.025441         1.925655
 C        -0.596876         1.403719         2.014712
 C        -0.687158         1.162480         0.514261
 O        -0.177448        -0.060217         0.003762
 C        -0.221241         2.571729        -0.042794
 C        -1.198747         3.719412         0.342808
 C        -2.445200         2.949037         0.842729
 C        -2.298993         1.433612         0.622074
 H        -3.053200         2.652899         3.515789
 H         0.332737         1.913970         2.279172
 H        -0.655186         0.468654         2.672474
 H        -0.144207        -0.069933        -0.961830
 H         0.775327         2.682502         0.401480
 H        -0.309835         2.638043        -1.185440
 H        -0.869463         4.385384         1.153965
 H        -1.346752         4.412452        -0.500595
 H        -3.431463         3.289469         0.966050
 H        -2.951183         0.507313         0.449619
