19
Iteration:  4788charge 0 multiplicity 1
 O        -3.127993         1.820239         2.987547
 C        -2.184811         1.898785         1.929332
 C        -0.706907         1.497617         1.954718
 C        -0.767481         1.306967         0.452710
 O        -0.229510        -0.058716         0.200171
 C        -0.123937         2.554145        -0.164738
 C        -1.021555         3.741670         0.402986
 C        -2.385763         3.016124         0.901524
 C        -2.313921         1.467416         0.479000
 H        -3.062415         0.934510         3.284790
 H         0.058343         2.262334         2.326990
 H        -0.520319         0.532577         2.442584
 H         0.112884        -0.071835        -0.707571
 H         0.955943         2.490239        -0.057498
 H        -0.403161         2.602763        -1.235362
 H        -0.588520         4.174933         1.319753
 H        -1.215754         4.433473        -0.403427
 H        -3.219316         3.726295         1.059122
 H        -2.930954         0.814882        -0.129745
