19
Iteration:  3617
 O        -3.103281         1.984983         2.938929
 C        -2.050360         1.974663         2.019550
 C        -0.671937         1.339147         2.071832
 C        -0.788257         1.155171         0.534151
 O        -0.158816         0.042777        -0.029946
 C        -0.106003         2.627341         0.056606
 C        -1.221943         3.691122         0.252230
 C        -2.337081         2.875967         0.769692
 C        -2.310107         1.400773         0.579546
 H        -3.021495         2.862982         3.400446
 H         0.304918         1.706717         2.396377
 H        -0.858043         0.250411         2.373224
 H        -0.582100        -0.012323        -0.884670
 H         0.861304         2.758806         0.583889
 H        -0.108678         2.535275        -0.995614
 H        -1.023089         4.477319         0.972299
 H        -1.618528         4.133061        -0.669389
 H        -3.333058         3.139329         0.812912
 H        -3.171587         0.809874         0.425266
