19
Iteration:  2075charge 0 multiplicity 1
 O        -3.069087         1.736736         3.052959
 C        -2.147840         1.955993         1.949533
 C        -0.661717         1.502525         2.007300
 C        -0.737282         1.275389         0.487123
 O        -0.248948        -0.032001         0.159588
 C        -0.196377         2.482813        -0.183472
 C        -1.101954         3.712143         0.290073
 C        -2.315871         2.990102         0.824453
 C        -2.332408         1.504629         0.562254
 H        -3.423388         2.599946         3.427330
 H         0.164499         2.133320         2.351355
 H        -0.560078         0.477914         2.300249
 H        -0.040079        -0.075168        -0.768267
 H         0.851284         2.776823         0.073428
 H        -0.209714         2.518056        -1.272268
 H        -0.715592         4.227392         1.179476
 H        -1.157633         4.517552        -0.464987
 H        -3.335590         3.374005         0.721983
 H        -3.143648         0.956327         0.174899
