19
Iteration:  4292charge 0 multiplicity 1
 O        -3.190345         1.706938         2.910099
 C        -2.188119         1.848950         1.972425
 C        -0.708149         1.561154         2.044362
 C        -0.742286         1.238382         0.488408
 O        -0.249279        -0.046353         0.104257
 C        -0.168784         2.587388        -0.244863
 C        -1.060116         3.655055         0.330952
 C        -2.268448         3.029818         0.919773
 C        -2.323375         1.602123         0.536713
 H        -2.851316         1.644032         3.821746
 H        -0.007911         2.380382         2.289272
 H        -0.572191         0.524658         2.535068
 H         0.702708        -0.173268         0.428013
 H         0.953643         2.752172         0.065312
 H        -0.182908         2.472947        -1.293466
 H        -0.503257         4.392510         1.011813
 H        -1.473453         4.153235        -0.572373
 H        -3.015115         3.703366         1.342361
 H        -3.097311         1.173975        -0.075377
