19
Iteration:  3222
 O        -2.949301         1.979970         3.048120
 C        -2.164116         1.943612         1.971383
 C        -0.744801         1.302207         1.952037
 C        -0.779093         1.250794         0.491281
 O        -0.123934         0.028042         0.076581
 C        -0.206142         2.492854        -0.067566
 C        -1.192760         3.707807         0.229966
 C        -2.354285         2.919965         0.850274
 C        -2.359184         1.397412         0.584636
 H        -3.405310         2.868991         3.185778
 H         0.026443         1.919296         2.477808
 H        -0.858615         0.317499         2.505671
 H         0.674032         0.225811        -0.440672
 H         0.703755         2.755545         0.508335
 H        -0.048480         2.423739        -1.173598
 H        -0.891076         4.305453         1.132998
 H        -1.466400         4.365642        -0.624223
 H        -3.344670         3.375516         0.778158
 H        -3.188019         1.007669        -0.123357
