19
Iteration:  4994
 O        -3.117770         1.890120         2.976764
 C        -2.169413         1.887180         1.950499
 C        -0.696523         1.420731         2.076935
 C        -0.706832         1.258538         0.479987
 O        -0.166576         0.044467         0.142561
 C        -0.191770         2.547162        -0.264360
 C        -1.046266         3.672921         0.450177
 C        -2.392121         2.993533         0.807475
 C        -2.277756         1.499026         0.544207
 H        -3.532575         1.060890         2.966757
 H         0.016379         2.148330         2.310400
 H        -0.584609         0.369169         2.517536
 H        -0.414688        -0.092471        -0.775157
 H         0.819143         2.721177         0.020496
 H        -0.459543         2.672515        -1.435671
 H        -0.725150         3.941477         1.525831
 H        -1.113919         4.480388        -0.254242
 H        -3.266861         3.588444         0.771560
 H        -2.995029         0.689644         0.272613
