19
Iteration:  3613
 O        -3.115529         2.006075         2.927560
 C        -2.058029         1.989846         2.007247
 C        -0.675676         1.297868         2.074828
 C        -0.763867         1.155548         0.505609
 O        -0.166431         0.062364        -0.009324
 C        -0.131432         2.639147         0.033071
 C        -1.246666         3.677865         0.282645
 C        -2.303347         2.893287         0.797798
 C        -2.276055         1.377696         0.580475
 H        -3.090402         2.853279         3.364372
 H         0.308205         1.685813         2.353029
 H        -0.744897         0.210821         2.392594
 H        -0.622810        -0.095319        -0.887887
 H         0.883197         2.745003         0.463938
 H         0.057188         2.341980        -1.037072
 H        -1.100044         4.568092         1.003194
 H        -1.657417         4.108454        -0.653967
 H        -3.386501         3.200251         0.928803
 H        -3.246400         0.789711         0.363884
