19
Iteration:  4843
 O        -3.197273         1.948189         2.967149
 C        -2.174769         1.904257         1.996035
 C        -0.715615         1.375362         2.065722
 C        -0.765143         1.251346         0.500073
 O        -0.032912         0.057683         0.013161
 C        -0.251227         2.540099        -0.153204
 C        -1.059015         3.641846         0.406581
 C        -2.304701         2.965081         0.861508
 C        -2.277214         1.504520         0.520766
 H        -3.206981         1.070761         3.294805
 H         0.057672         2.117240         2.546009
 H        -0.537551         0.358416         2.527755
 H        -0.638517        -0.294949        -0.633453
 H         0.838970         2.596306        -0.034712
 H        -0.462978         2.487530        -1.230554
 H        -0.525274         4.189770         1.234584
 H        -1.284033         4.465908        -0.279341
 H        -3.253155         3.445834         0.599920
 H        -3.306293         1.162073         0.283798
