19
Iteration:  3904charge 0 multiplicity 1
 O        -3.216366         1.648570         2.848636
 C        -2.166793         1.897586         1.968736
 C        -0.679554         1.681948         2.099677
 C        -0.796186         1.289286         0.442603
 O        -0.272674         0.066441         0.071929
 C        -0.198006         2.431590        -0.291914
 C        -0.940026         3.623367         0.394851
 C        -2.309027         3.024523         0.927356
 C        -2.260896         1.506454         0.612638
 H        -3.145402         2.050932         3.799855
 H        -0.033483         2.448588         2.447229
 H        -0.465836         0.856596         2.716740
 H         0.179250        -0.428209         0.804219
 H         0.807945         2.688108        -0.147438
 H        -0.344870         2.260786        -1.375796
 H        -0.240583         4.035343         1.143788
 H        -1.125455         4.489838        -0.315053
 H        -3.245617         3.499574         0.797671
 H        -2.945011         1.070197        -0.095271
