19
Iteration:  2384charge 0 multiplicity 1
 O        -3.169564         1.852962         3.061474
 C        -2.094723         2.056612         2.036576
 C        -0.571638         1.562857         2.083070
 C        -0.790599         1.197046         0.533393
 O        -0.235469         0.045106        -0.060504
 C        -0.299001         2.426274        -0.309487
 C        -1.044503         3.623015         0.318311
 C        -2.289140         2.998200         0.849433
 C        -2.318264         1.445242         0.690866
 H        -3.456193         0.900337         2.816114
 H         0.238675         2.189376         2.525960
 H        -0.820218         0.588530         2.661637
 H         0.540600         0.357257        -0.521751
 H         0.797519         2.663725        -0.170550
 H        -0.617624         2.323473        -1.345661
 H        -0.304028         3.910983         1.022281
 H        -1.175799         4.522524        -0.287189
 H        -3.243926         3.588720         0.734300
 H        -3.167789         0.754978         0.489968
