19
Iteration:   985charge 0 multiplicity 1
 O        -3.181399         1.760978         2.971964
 C        -2.190905         1.956039         2.021231
 C        -0.687958         1.461809         2.093206
 C        -0.710266         1.239961         0.593622
 O        -0.369596         0.066870        -0.041294
 C        -0.071667         2.527029        -0.200671
 C        -1.064518         3.725149         0.265807
 C        -2.286191         2.986555         0.899050
 C        -2.159619         1.448962         0.556703
 H        -3.548314         2.611309         3.075358
 H         0.165991         1.833518         2.726599
 H        -0.911284         0.506475         2.483365
 H         0.250206        -0.429099         0.560594
 H         1.012200         2.595489         0.022210
 H        -0.449283         2.379577        -1.243692
 H        -0.474143         4.470748         0.866321
 H        -1.523711         4.086422        -0.670290
 H        -3.282154         3.484365         0.903940
 H        -2.952451         0.943692        -0.002588
