19
Iteration:  2272
 O        -3.134685         1.915067         3.154541
 C        -2.166778         1.969122         2.042460
 C        -0.632417         1.417089         2.085849
 C        -0.687586         1.217381         0.624065
 O        -0.319407         0.120012        -0.157276
 C        -0.215952         2.455221        -0.198453
 C        -1.133552         3.650052         0.168972
 C        -2.246426         2.994373         0.889373
 C        -2.267372         1.453024         0.629950
 H        -3.686580         1.146443         3.059167
 H         0.136637         2.151859         2.502950
 H        -0.586696         0.408799         2.584002
 H         0.684251         0.137971        -0.137785
 H         0.846097         2.723033         0.058569
 H        -0.415983         2.198393        -1.250096
 H        -0.487933         4.450292         0.576519
 H        -1.492061         4.019720        -0.822221
 H        -3.209580         3.455107         0.863219
 H        -2.906786         0.756448         0.072306
