19
Iteration:  1629
 O        -3.022354         1.877008         3.057026
 C        -2.222423         1.857104         1.916755
 C        -0.700813         1.525617         2.066043
 C        -0.762887         1.325914         0.489924
 O        -0.384735         0.037234         0.094882
 C        -0.132786         2.553405        -0.133566
 C        -1.003921         3.679551         0.366176
 C        -2.318943         2.900660         0.809505
 C        -2.258673         1.451976         0.434741
 H        -3.896144         1.350478         2.938205
 H         0.043679         2.220888         2.379064
 H        -0.695997         0.649678         2.862553
 H         0.571191        -0.211049         0.242800
 H         0.928044         2.506652         0.208435
 H        -0.237249         2.480295        -1.213842
 H        -0.622083         4.275314         1.184666
 H        -1.308736         4.321252        -0.487456
 H        -3.303894         3.383505         0.679433
 H        -2.743398         0.745146        -0.254836
