19
Iteration:  1558
 O        -3.122661         1.972195         3.045688
 C        -2.207632         1.898934         1.946836
 C        -0.844711         1.359069         2.167151
 C        -0.714944         1.216940         0.544755
 O        -0.228068         0.055586        -0.106775
 C        -0.068502         2.545650        -0.089104
 C        -1.128622         3.589363         0.150781
 C        -2.258907         3.023228         0.967141
 C        -2.293299         1.462211         0.509084
 H        -2.988122         1.213497         3.731171
 H        -0.184333         1.967511         2.876740
 H        -0.923183         0.380166         2.555945
 H         0.711318         0.358800        -0.084632
 H         0.738779         2.972720         0.483230
 H         0.159725         2.310924        -1.157171
 H        -0.576508         4.534425         0.470705
 H        -1.624726         3.776606        -0.826470
 H        -3.085948         3.700285         1.099816
 H        -3.001902         1.074258        -0.173456
