19
Iteration:  1263charge 0 multiplicity 1
 O        -3.084529         1.848244         3.000885
 C        -2.182204         1.906586         1.886195
 C        -0.693074         1.472091         2.047081
 C        -0.766061         1.269452         0.527019
 O        -0.363873         0.038078         0.140023
 C        -0.037894         2.577764        -0.040562
 C        -1.039668         3.659438         0.300231
 C        -2.250728         2.954832         0.868997
 C        -2.339931         1.477457         0.397962
 H        -2.654808         1.079566         3.467435
 H         0.012686         2.279188         2.492169
 H        -0.643577         0.499979         2.497789
 H        -1.003962        -0.613968        -0.121262
 H         0.927386         3.007403         0.210812
 H        -0.139363         2.675420        -1.137885
 H        -0.678845         4.480670         0.918516
 H        -1.351833         4.079872        -0.642116
 H        -3.195173         3.514132         0.822873
 H        -2.964341         0.884312        -0.239724
