19
Iteration:  1086charge 0 multiplicity 1
 O        -3.122096         1.836239         2.937126
 C        -2.118828         1.924916         1.990729
 C        -0.651559         1.461170         2.129334
 C        -0.760776         1.254572         0.471931
 O        -0.231405         0.081501         0.051542
 C        -0.184826         2.464783        -0.211570
 C        -1.123799         3.685575         0.356336
 C        -2.254559         2.925239         0.919257
 C        -2.284035         1.495009         0.546047
 H        -3.694838         2.683460         2.836674
 H        -0.016165         2.041714         2.811167
 H        -0.724218         0.566016         2.659288
 H        -0.815411        -0.581537        -0.269777
 H         0.811618         2.708813         0.100781
 H         0.007967         2.500773        -1.296971
 H        -0.456785         4.210036         1.056067
 H        -1.298977         4.227371        -0.524372
 H        -3.270877         3.307139         0.930315
 H        -2.920448         0.991452        -0.181649
