19
Iteration:   832
 O        -3.110089         1.871535         2.988117
 C        -2.129737         1.921951         1.974742
 C        -0.814057         1.385889         2.117691
 C        -0.720311         1.343446         0.557594
 O        -0.293028         0.087137         0.008471
 C        -0.096592         2.483559        -0.034312
 C        -1.069706         3.660770         0.275195
 C        -2.362147         2.968814         0.806135
 C        -2.207309         1.531870         0.424273
 H        -2.891365         1.020251         3.424453
 H        -0.040442         2.136691         2.485072
 H        -0.612488         0.420220         2.555928
 H        -0.825870        -0.596306         0.445383
 H         0.964730         2.557299         0.359670
 H         0.148596         2.280930        -1.140235
 H        -0.654119         4.490437         0.951445
 H        -1.244117         4.130772        -0.737151
 H        -3.328900         3.416672         0.948229
 H        -2.850667         1.135246        -0.334816
