19
Iteration:  3310charge 0 multiplicity 1
 O        -2.994242         1.738884         2.987153
 C        -2.151513         2.000458         1.922324
 C        -0.593343         1.555400         2.030223
 C        -0.744821         1.270085         0.542689
 O        -0.222728        -0.046376         0.183729
 C        -0.248361         2.544949        -0.220273
 C        -1.085532         3.677081         0.327628
 C        -2.402516         3.003178         0.876967
 C        -2.280417         1.499421         0.543214
 H        -3.940320         1.983705         2.722778
 H         0.176762         2.207205         2.426658
 H        -0.558968         0.511311         2.476551
 H        -0.850890        -0.432584        -0.441045
 H         0.797416         2.534396         0.101575
 H        -0.259006         2.288242        -1.272586
 H        -0.762560         4.307057         1.140069
 H        -1.314107         4.359692        -0.485460
 H        -3.392720         3.487674         0.776531
 H        -2.914243         0.940496        -0.079415
