19
Iteration:  1001charge 0 multiplicity 1
 O        -3.141270         1.869737         3.025707
 C        -2.133093         1.937215         2.026679
 C        -0.767311         1.288992         2.134492
 C        -0.699357         1.308980         0.479449
 O        -0.218719        -0.020766        -0.043168
 C        -0.159253         2.553932        -0.188312
 C        -1.086394         3.702342         0.247705
 C        -2.279510         2.984696         0.887863
 C        -2.283220         1.529415         0.550547
 H        -3.850647         2.511011         2.878061
 H        -0.071091         1.976371         2.573556
 H        -0.752787         0.228063         2.599396
 H         0.256798        -0.497872         0.691607
 H         0.831049         2.895050         0.174261
 H        -0.081364         2.366388        -1.278239
 H        -0.584095         4.349844         0.979700
 H        -1.369534         4.447616        -0.494604
 H        -3.266650         3.441905         0.781470
 H        -3.032257         0.904645         0.071943
