19
Iteration:  4771
 O        -3.111039         1.822983         2.916411
 C        -2.134037         1.967789         1.993539
 C        -0.691773         1.490452         2.038482
 C        -0.756676         1.195690         0.501108
 O        -0.259086        -0.020418         0.087690
 C        -0.135954         2.551775        -0.123542
 C        -1.101608         3.676447         0.352711
 C        -2.294009         2.992936         0.906653
 C        -2.328157         1.525489         0.530382
 H        -3.271639         0.908945         2.946497
 H         0.100298         2.180564         2.336391
 H        -0.520838         0.620608         2.717499
 H         0.098327         0.111196        -0.793131
 H         0.817118         2.844610         0.391022
 H         0.091367         2.512761        -1.198699
 H        -0.570042         4.384960         0.991662
 H        -1.490811         4.318044        -0.482268
 H        -3.312793         3.307244         0.785055
 H        -3.294610         1.038620         0.215076
