19
Iteration:  2949charge 0 multiplicity 1
 O        -3.134992         1.779863         3.054259
 C        -2.200129         1.886113         1.969641
 C        -0.680001         1.562150         2.101961
 C        -0.684510         1.309560         0.554653
 O        -0.237660        -0.021256         0.129441
 C        -0.197057         2.562932        -0.361146
 C        -1.046991         3.717168         0.308153
 C        -2.296856         2.965788         0.927098
 C        -2.237247         1.474635         0.523093
 H        -3.369741         0.906869         3.274871
 H        -0.022316         2.236190         2.668085
 H        -0.593724         0.576269         2.570781
 H        -0.899795        -0.140417        -0.593402
 H         0.896032         2.814552        -0.373259
 H        -0.476171         2.410593        -1.433292
 H        -0.527240         4.485665         0.940732
 H        -1.215810         4.312926        -0.595642
 H        -3.293679         3.463721         0.722477
 H        -2.995807         0.932248        -0.027286
