19
Iteration:  3226
 O        -2.924718         1.984750         3.021684
 C        -2.119771         1.936254         1.948516
 C        -0.768317         1.287509         1.964421
 C        -0.786067         1.235458         0.474329
 O        -0.127369         0.043135         0.097130
 C        -0.229317         2.515794        -0.052814
 C        -1.186019         3.747510         0.233621
 C        -2.343837         2.944966         0.846135
 C        -2.372325         1.359607         0.585895
 H        -3.437910         2.760885         3.123659
 H         0.011175         1.802322         2.479955
 H        -1.015970         0.342596         2.489003
 H         0.707805         0.119748        -0.419486
 H         0.720924         2.691461         0.446654
 H         0.013672         2.292249        -1.078683
 H        -0.923646         4.412703         1.062661
 H        -1.576966         4.363708        -0.599456
 H        -3.406902         3.326125         0.924697
 H        -3.163364         0.989601         0.033253
