19
Iteration:  3689charge 0 multiplicity 1
 O        -3.151829         1.711794         2.835314
 C        -2.077094         2.009093         2.017001
 C        -0.638872         1.505851         2.050294
 C        -0.727567         1.303048         0.495074
 O        -0.216825        -0.049653         0.232152
 C        -0.264295         2.540358        -0.334239
 C        -1.104300         3.659060         0.308826
 C        -2.306110         2.980099         0.940315
 C        -2.307105         1.540881         0.571338
 H        -3.208772         2.349102         3.640674
 H         0.113616         2.104143         2.560048
 H        -0.697939         0.524204         2.578219
 H         0.310121         0.107961        -0.576420
 H         0.802461         2.676041        -0.078629
 H        -0.504391         2.222147        -1.393373
 H        -0.611520         4.226953         1.150561
 H        -1.364538         4.374596        -0.469317
 H        -3.294267         3.404301         0.899021
 H        -3.122771         0.824930         0.388546
