19
Iteration:  1525charge 0 multiplicity 1
 O        -3.115824         1.942235         2.996899
 C        -2.154485         1.976433         1.941655
 C        -0.683462         1.368863         2.040373
 C        -0.759127         1.236215         0.545123
 O        -0.304005         0.009650         0.073813
 C        -0.122614         2.573336        -0.084499
 C        -1.087400         3.640409         0.320579
 C        -2.371094         2.984203         0.723347
 C        -2.287546         1.427123         0.513546
 H        -2.765769         1.432201         3.794638
 H         0.128510         1.904238         2.636223
 H        -0.770508         0.367649         2.326785
 H         0.511903         0.090878        -0.391522
 H         0.779165         3.034900         0.286516
 H         0.050473         2.481460        -1.190941
 H        -0.738859         4.237103         1.228503
 H        -1.238957         4.422187        -0.465758
 H        -3.287829         3.456870         1.005114
 H        -2.952588         0.741535        -0.004014
