19
Iteration:  2588
 O        -3.052174         1.887226         2.928471
 C        -2.056600         1.879251         1.982004
 C        -0.633315         1.550373         2.046452
 C        -0.745603         1.300658         0.471442
 O        -0.395867        -0.095700         0.022960
 C        -0.253393         2.572868        -0.290544
 C        -1.054313         3.727232         0.449994
 C        -2.322465         2.962903         0.883726
 C        -2.296900         1.493016         0.535816
 H        -2.894292         1.046145         3.469821
 H         0.068820         2.393297         2.414379
 H        -0.342472         0.685697         2.667961
 H        -0.001199        -0.438383         0.858430
 H         0.859098         2.631858        -0.201170
 H        -0.438343         2.238339        -1.311693
 H        -0.503784         4.120580         1.355690
 H        -1.345262         4.516506        -0.264260
 H        -3.340727         3.378309         0.963476
 H        -3.127498         0.808945         0.227720
