19
Iteration:  3509charge 0 multiplicity 1
 O        -3.185889         1.728061         2.939560
 C        -2.106669         1.886693         1.929918
 C        -0.679710         1.575005         2.071991
 C        -0.639615         1.339776         0.466834
 O        -0.352145        -0.027480         0.258439
 C        -0.266633         2.516230        -0.335015
 C        -1.103245         3.744273         0.349564
 C        -2.257400         2.975382         0.929370
 C        -2.182927         1.459300         0.562861
 H        -2.908975         2.104252         3.750826
 H        -0.122323         2.357407         2.656325
 H        -0.394672         0.551264         2.468725
 H         0.014955        -0.189102        -0.646333
 H         0.864341         2.561916        -0.311614
 H        -0.517840         2.446202        -1.514045
 H        -0.410248         4.229642         1.014190
 H        -1.530884         4.435464        -0.398880
 H        -3.220057         3.253335         0.604569
 H        -2.917531         0.951097        -0.125534
