19
Iteration:    29charge 0 multiplicity 1
 O        -2.995505         1.814741         3.094055
 C        -2.321372         1.945228         1.890170
 C        -0.834210         1.585289         2.040148
 C        -0.717254         1.222260         0.518499
 O        -0.020035         0.096033         0.167752
 C        -0.194762         2.455354        -0.193885
 C        -1.021757         3.628890         0.330910
 C        -2.437475         2.953486         0.671930
 C        -2.326293         1.459238         0.507399
 H        -3.950611         1.845394         3.113626
 H         0.060268         2.407257         2.315185
 H        -0.698809         0.761309         2.785489
 H         0.038993        -0.537148         0.890104
 H         0.846734         2.646634         0.205868
 H        -0.381843         2.396484        -1.331195
 H        -0.552095         4.112730         1.208824
 H        -1.065934         4.265937        -0.580946
 H        -3.392731         3.443047         0.551045
 H        -2.989633         0.965604        -0.166055
