19
Iteration:  2821charge 0 multiplicity 1
 O        -3.084074         1.796246         3.060641
 C        -2.256816         2.004949         1.996965
 C        -0.697816         1.475766         1.986688
 C        -0.819891         1.257091         0.501061
 O        -0.232242         0.044411        -0.047140
 C        -0.160165         2.471736        -0.194234
 C        -1.038897         3.656591         0.290563
 C        -2.308328         3.011980         0.921351
 C        -2.287790         1.571505         0.597948
 H        -3.047446         0.897920         3.503522
 H         0.131371         2.145176         2.372037
 H        -0.541608         0.422592         2.456211
 H         0.569368        -0.186912         0.447672
 H         0.900192         2.560990         0.054524
 H        -0.233419         2.176021        -1.246125
 H        -0.478888         4.331075         0.930354
 H        -1.606778         4.069345        -0.576895
 H        -3.304278         3.577488         0.968597
 H        -3.077118         1.044864         0.029567
