19
Iteration:  3568
 O        -3.084754         1.730927         3.090372
 C        -2.210467         1.992913         2.013442
 C        -0.789261         1.423961         2.075788
 C        -0.720015         1.281014         0.530053
 O        -0.183000         0.088521         0.113086
 C        -0.158995         2.480155        -0.220691
 C        -1.034624         3.673372         0.232941
 C        -2.282578         2.978914         0.830956
 C        -2.309645         1.442609         0.504295
 H        -3.253065         2.547499         3.616303
 H        -0.117673         2.229191         2.501058
 H        -0.863614         0.581872         2.728048
 H        -0.319006         0.137105        -0.872897
 H         0.888224         2.578501         0.020694
 H        -0.380114         2.457833        -1.311933
 H        -0.423598         4.383536         0.873244
 H        -1.486139         4.262231        -0.607148
 H        -3.337740         3.436810         0.783921
 H        -2.930750         0.865946        -0.215587
