19
Iteration:  4970
 O        -3.120282         1.971154         2.987579
 C        -2.213072         1.963950         1.965523
 C        -0.730896         1.443530         2.117364
 C        -0.660789         1.270110         0.571522
 O        -0.167917         0.075103         0.048425
 C        -0.213135         2.567139        -0.277989
 C        -1.014295         3.680813         0.474387
 C        -2.314460         2.843290         0.873779
 C        -2.277791         1.349155         0.502641
 H        -3.540665         1.069156         2.979970
 H         0.008718         2.085447         2.604385
 H        -0.847590         0.372837         2.487782
 H        -0.509008         0.157609        -0.887849
 H         0.844358         2.838539        -0.403226
 H        -0.835311         2.363117        -1.283626
 H        -0.674905         3.978043         1.487698
 H        -1.221923         4.496314        -0.231255
 H        -3.266898         3.362842         0.693273
 H        -2.822674         1.002822        -0.376857
