19
Iteration:  2331
 O        -2.927142         2.107131         3.109575
 C        -2.125091         1.813719         2.019288
 C        -0.726825         1.279616         2.001410
 C        -0.779408         1.238152         0.453602
 O        -0.371526        -0.004599        -0.000253
 C        -0.076156         2.669026        -0.075814
 C        -1.266388         3.715997         0.269220
 C        -2.341714         2.804819         0.889210
 C        -2.262704         1.464555         0.393768
 H        -2.604890         1.497255         3.876389
 H        -0.171380         2.028192         2.569403
 H        -0.577301         0.259635         2.481108
 H         0.344608        -0.207624         0.591682
 H         0.894845         3.025027         0.197685
 H         0.051339         2.788982        -1.140147
 H        -0.961256         4.573226         0.822334
 H        -1.513953         4.076246        -0.720636
 H        -3.396984         3.222872         0.971922
 H        -2.931469         1.143763        -0.447902
