19
Iteration:  3532
 O        -3.104619         1.626675         2.902610
 C        -2.078879         1.968642         1.945759
 C        -0.647397         1.589998         2.013604
 C        -0.725047         1.210405         0.525424
 O        -0.295766        -0.060346         0.293176
 C        -0.182582         2.607204        -0.315999
 C        -1.027356         3.666932         0.379491
 C        -2.400754         3.006154         0.807299
 C        -2.406864         1.563869         0.565812
 H        -3.068933         2.209703         3.724110
 H         0.163821         2.383803         2.110639
 H        -0.371478         0.769859         2.648619
 H         0.331982        -0.166641        -0.455814
 H         0.902671         2.787489        -0.352403
 H        -0.491181         2.453005        -1.479357
 H        -0.506127         4.078700         1.241256
 H        -1.231925         4.473934        -0.357689
 H        -3.245691         3.621819         0.961874
 H        -3.038683         0.832050         0.137174
