19
Iteration:    75
 O        -3.263482         1.934161         2.821053
 C        -2.132015         1.903832         1.956583
 C        -0.663558         1.471384         2.174025
 C        -0.654902         1.301264         0.612980
 O        -0.121223         0.049155         0.036499
 C        -0.176012         2.505612        -0.189536
 C        -1.190968         3.635702         0.213905
 C        -2.339374         2.992344         0.891388
 C        -2.215640         1.416022         0.632226
 H        -2.926744         1.660166         3.700535
 H         0.072009         2.253322         2.646307
 H        -0.455983         0.480240         2.618214
 H        -0.612443        -0.660740         0.527352
 H         0.898021         2.829887        -0.021672
 H        -0.501152         2.156406        -1.250872
 H        -0.699882         4.299364         0.921690
 H        -1.541118         4.201342        -0.652078
 H        -3.302265         3.368989         0.640050
 H        -2.883730         0.847811         0.006685
