19
Iteration:   997charge 0 multiplicity 1
 O        -3.175123         1.834895         3.023944
 C        -2.103706         1.981149         1.991794
 C        -0.763402         1.317875         2.128026
 C        -0.676148         1.275778         0.510637
 O        -0.262134         0.005153        -0.030338
 C        -0.179811         2.578721        -0.207404
 C        -1.025134         3.693261         0.248341
 C        -2.305995         2.975014         0.949206
 C        -2.263082         1.497145         0.546163
 H        -3.838744         2.587231         2.909736
 H         0.043132         1.955162         2.562110
 H        -0.845005         0.354185         2.575169
 H         0.232046        -0.555950         0.555948
 H         0.887789         2.857126         0.044339
 H        -0.000369         2.409800        -1.298471
 H        -0.607787         4.510359         0.905647
 H        -1.352503         4.333111        -0.584732
 H        -3.347161         3.307060         0.790771
 H        -2.948173         0.847245         0.003271
