19
Iteration:  2171charge 0 multiplicity 1
 O        -3.156934         1.964720         3.060745
 C        -2.185640         1.929828         2.007019
 C        -0.601716         1.351667         2.118403
 C        -0.784682         1.271364         0.504967
 O        -0.251650         0.134736        -0.104401
 C        -0.133890         2.492629        -0.159908
 C        -1.121005         3.654306         0.256670
 C        -2.315798         2.907031         0.904106
 C        -2.284911         1.467476         0.524992
 H        -2.790381         1.408124         3.830914
 H         0.299012         2.013289         2.431448
 H        -0.649791         0.420560         2.672666
 H        -0.389670        -0.633845         0.430013
 H         0.931562         2.514684         0.113330
 H        -0.138175         2.282872        -1.268309
 H        -0.578956         4.486597         0.806867
 H        -1.517526         4.230797        -0.600687
 H        -3.140391         3.632418         0.964242
 H        -2.942480         1.047329        -0.199939
