19
Iteration:  3204charge 0 multiplicity 1
 O        -3.103735         1.952594         3.201635
 C        -2.198493         1.903390         2.014919
 C        -0.747321         1.504484         2.105460
 C        -0.733813         1.230848         0.474369
 O        -0.171869         0.038849        -0.028825
 C        -0.114870         2.525268        -0.173363
 C        -1.080152         3.575487         0.317527
 C        -2.401608         2.910690         0.788571
 C        -2.291048         1.415377         0.427893
 H        -3.204690         2.923002         3.498211
 H         0.021603         2.146265         2.492341
 H        -0.738011         0.516097         2.648792
 H         0.469544         0.165693        -0.732011
 H         0.931978         2.634621         0.071717
 H        -0.076880         2.296470        -1.229808
 H        -0.731849         4.345507         1.010686
 H        -1.569537         4.107873        -0.532332
 H        -3.444857         3.322875         0.865688
 H        -3.020691         0.763303         0.044841
