19
Iteration:  4015
 O        -3.065548         1.932279         2.957235
 C        -2.107538         1.942769         1.950429
 C        -0.721360         1.211617         2.146595
 C        -0.730931         1.238395         0.576517
 O        -0.212263         0.071414        -0.023393
 C        -0.129164         2.557168        -0.019075
 C        -1.175734         3.689958         0.319398
 C        -2.366821         2.944204         0.744780
 C        -2.302513         1.458599         0.554404
 H        -3.507930         2.702433         3.215167
 H        -0.003668         1.738780         2.712752
 H        -0.921057         0.296492         2.527317
 H         0.460680         0.463106        -0.588692
 H         0.851601         2.873374         0.193726
 H        -0.229358         2.280264        -1.086665
 H        -0.692412         4.359192         1.028310
 H        -1.413586         4.347989        -0.573431
 H        -3.363494         3.474405         0.789789
 H        -2.905296         0.763314        -0.072332
