19
Iteration:   243
 O        -3.165740         1.685000         2.922251
 C        -2.223747         1.959432         1.931402
 C        -0.745544         1.442757         1.989553
 C        -0.787739         1.303298         0.503694
 O        -0.177536        -0.025747         0.305615
 C        -0.078208         2.599842        -0.101994
 C        -1.019102         3.756942         0.279299
 C        -2.294575         3.043919         0.784539
 C        -2.325127         1.510747         0.475109
 H        -2.959290         2.214057         3.716917
 H         0.160440         2.004763         2.380652
 H        -0.685783         0.436630         2.537997
 H        -0.625180        -0.637270        -0.341258
 H         1.009800         2.545643         0.058092
 H        -0.256873         2.354622        -1.169551
 H        -0.567967         4.318354         1.068011
 H        -1.256587         4.315890        -0.613984
 H        -3.240630         3.609292         0.706601
 H        -2.978488         0.762243         0.038147
