19
Iteration:  1693
 O        -3.219757         1.887584         2.843756
 C        -2.131721         1.914023         2.013876
 C        -0.680524         1.424226         2.141689
 C        -0.746096         1.235735         0.564378
 O        -0.294201         0.068973         0.132992
 C        -0.194688         2.505471        -0.332642
 C        -0.996338         3.754023         0.306363
 C        -2.223581         2.953994         0.938300
 C        -2.288174         1.467873         0.608990
 H        -3.515172         0.983031         3.165665
 H         0.104250         2.034286         2.502840
 H        -0.610401         0.391963         2.609503
 H         0.586085         0.143994        -0.229114
 H         0.943018         2.518711        -0.302050
 H        -0.562378         2.506586        -1.358437
 H        -0.593590         4.339892         1.138719
 H        -1.418900         4.386711        -0.524871
 H        -3.223218         3.359631         0.827653
 H        -2.938104         0.848988         0.017406
