19
Iteration:  4375charge 0 multiplicity 1
 O        -3.121257         2.083316         2.992373
 C        -2.137568         1.833504         1.919380
 C        -0.676729         1.362428         2.053304
 C        -0.765435         1.205381         0.456294
 O        -0.191951         0.083054        -0.050485
 C        -0.142471         2.554150        -0.024977
 C        -1.108568         3.684723         0.320481
 C        -2.352800         2.946810         0.957181
 C        -2.369315         1.356868         0.526608
 H        -3.588266         1.169577         3.128119
 H         0.117578         2.044993         2.412816
 H        -0.453827         0.421343         2.373459
 H         0.738835         0.219588         0.061379
 H         0.855640         2.717318         0.341691
 H        -0.098879         2.354051        -1.200211
 H        -0.706380         4.196158         1.196616
 H        -1.240069         4.478902        -0.462142
 H        -3.312036         3.401272         0.903782
 H        -3.250904         0.891776         0.034621
