19
Iteration:  3962
 O        -3.088038         1.897056         3.086252
 C        -2.188553         1.822577         1.973392
 C        -0.825933         1.343456         2.160605
 C        -0.674259         1.299917         0.552899
 O        -0.307499         0.106888        -0.021064
 C        -0.031757         2.583520        -0.060616
 C        -1.137499         3.650461         0.231039
 C        -2.309703         2.889122         0.842520
 C        -2.267533         1.441754         0.379925
 H        -3.152375         2.776780         3.375231
 H        -0.149402         1.981909         2.782704
 H        -0.916402         0.355782         2.548998
 H         0.572492         0.268982        -0.365635
 H         0.936133         2.944341         0.287217
 H         0.054142         2.399268        -1.116359
 H        -0.676484         4.416999         0.852266
 H        -1.382745         4.075032        -0.764336
 H        -3.309416         3.415649         0.887249
 H        -3.009331         0.802473        -0.123097
