19
Iteration:  4341
 O        -3.095126         2.004523         3.063251
 C        -2.253758         1.943043         1.968931
 C        -0.765951         1.372828         2.190564
 C        -0.673204         1.309472         0.531522
 O        -0.272877         0.034620        -0.098839
 C        -0.101111         2.568843        -0.102452
 C        -1.156581         3.680436         0.330080
 C        -2.356278         2.911350         0.822407
 C        -2.201786         1.382629         0.475500
 H        -3.027838         1.145725         3.528529
 H        -0.118135         1.962583         2.845673
 H        -0.905068         0.349703         2.493207
 H         0.569773         0.057134        -0.521685
 H         0.882288         2.970281         0.122085
 H        -0.086997         2.264464        -1.264656
 H        -0.650364         4.044212         1.205735
 H        -1.078710         4.483184        -0.482201
 H        -3.334492         3.254254         0.563497
 H        -2.845897         0.704982        -0.156265
