19
Iteration:    62charge 0 multiplicity 1
 O        -3.169381         1.946806         2.888023
 C        -2.178837         1.969315         1.984189
 C        -0.755294         1.495698         2.150519
 C        -0.653528         1.283642         0.524027
 O        -0.122980         0.051677         0.130180
 C        -0.210414         2.545534        -0.286441
 C        -1.120082         3.611566         0.292937
 C        -2.379153         2.882548         0.845133
 C        -2.202789         1.435158         0.518140
 H        -3.124879         1.154727         3.449791
 H         0.040610         2.218568         2.803258
 H        -0.866809         0.517618         2.693976
 H        -0.356740        -0.630937         0.760537
 H         0.879997         2.767990        -0.151034
 H        -0.211512         2.449471        -1.407573
 H        -0.602632         4.303298         0.983430
 H        -1.426866         4.296749        -0.534614
 H        -3.314201         3.344369         1.048382
 H        -2.915221         0.806356         0.074700
