19
Iteration:  3538
 O        -3.070509         1.602658         2.929751
 C        -2.095580         2.000608         1.951227
 C        -0.653898         1.557957         1.993899
 C        -0.671780         1.246500         0.479610
 O        -0.271542        -0.038228         0.278459
 C        -0.183925         2.498907        -0.280546
 C        -1.076487         3.651982         0.382154
 C        -2.383031         3.068313         0.767272
 C        -2.435245         1.573557         0.564333
 H        -3.148897         2.313595         3.660531
 H        -0.010657         2.381575         2.293728
 H        -0.376008         0.779854         2.798048
 H         0.302786         0.008663        -0.482605
 H         0.943786         2.566996        -0.278918
 H        -0.401000         2.523954        -1.298561
 H        -0.478129         4.113441         1.200784
 H        -1.258060         4.515318        -0.256811
 H        -3.383532         3.585103         0.799258
 H        -3.301616         0.868657         0.301719
