19
Iteration:  3442
 O        -3.004769         1.957117         3.100555
 C        -2.178686         1.932315         2.018002
 C        -0.749958         1.343674         2.004596
 C        -0.658721         1.248869         0.477562
 O        -0.135263         0.023472         0.037320
 C        -0.131868         2.547136         0.006848
 C        -1.228028         3.672556         0.206613
 C        -2.376050         2.900533         0.831119
 C        -2.365817         1.432010         0.452962
 H        -3.164812         2.936183         3.365622
 H         0.023657         1.730095         2.679471
 H        -0.877769         0.243069         2.371231
 H        -0.141058        -0.012815        -0.927360
 H         0.687420         3.059051         0.569732
 H         0.377571         2.382121        -1.013860
 H        -0.958546         4.500756         0.878587
 H        -1.547244         4.112335        -0.743705
 H        -3.313235         3.486529         1.027062
 H        -3.149709         0.819059        -0.018455
