19
Iteration:  4535
 O        -3.109037         2.032605         2.961386
 C        -2.125309         1.915400         1.937222
 C        -0.754634         1.343104         1.991724
 C        -0.801441         1.232381         0.494601
 O        -0.170298        -0.070296        -0.082830
 C        -0.104589         2.602864        -0.026946
 C        -1.162829         3.718235         0.373218
 C        -2.369016         2.940339         0.900264
 C        -2.302684         1.443355         0.544372
 H        -2.900354         1.196395         3.558236
 H         0.057347         1.926428         2.440714
 H        -0.715512         0.428263         2.704633
 H         0.692733         0.096868         0.294839
 H         1.070444         2.741727         0.295655
 H        -0.078485         2.576477        -1.225257
 H        -0.950996         4.493466         1.213641
 H        -1.419691         4.222638        -0.568280
 H        -3.282365         3.457795         0.969549
 H        -3.143387         0.993422         0.038000
