19
Iteration:  3609
 O        -3.124940         2.018552         2.919014
 C        -2.073335         1.998875         1.980609
 C        -0.680274         1.232959         2.065340
 C        -0.731223         1.198148         0.500509
 O        -0.174936         0.070874        -0.001220
 C        -0.159613         2.623119        -0.007332
 C        -1.256701         3.687744         0.300164
 C        -2.307319         2.880143         0.858159
 C        -2.257063         1.362450         0.587085
 H        -3.161131         2.935788         3.388853
 H         0.272404         1.747206         2.421007
 H        -0.654945         0.275587         2.482710
 H        -0.579852        -0.206471        -0.816474
 H         0.843529         2.773872         0.359605
 H         0.215175         2.293141        -1.100938
 H        -1.089740         4.536907         0.920247
 H        -1.596751         4.116799        -0.657345
 H        -3.332684         3.344073         0.997833
 H        -3.106914         0.827870         0.268337
