19
Iteration:  4265
 O        -3.151810         1.612959         2.918675
 C        -2.211673         1.892749         1.996805
 C        -0.662557         1.522814         2.103186
 C        -0.732942         1.361847         0.587196
 O        -0.396614         0.080364         0.085112
 C        -0.196996         2.585111        -0.283147
 C        -0.975410         3.707064         0.281440
 C        -2.301085         2.976858         0.872159
 C        -2.177344         1.499103         0.555879
 H        -3.174458         2.289465         3.614261
 H         0.122070         2.159899         2.643069
 H        -0.668078         0.485454         2.361792
 H         0.305202        -0.425697         0.586678
 H         0.817526         2.658347        -0.055115
 H        -0.395427         2.196597        -1.334101
 H        -0.337230         4.111972         1.016847
 H        -1.344218         4.402916        -0.476756
 H        -3.293756         3.462032         0.739843
 H        -2.750077         0.893170        -0.159839
