19
Iteration:  1853
 O        -3.044616         1.808588         3.101767
 C        -2.211200         1.883184         1.875140
 C        -0.760249         1.633864         2.064853
 C        -0.683939         1.329544         0.460559
 O        -0.263319        -0.093065         0.170725
 C        -0.164984         2.563832        -0.224159
 C        -1.000155         3.648737         0.453760
 C        -2.348566         2.985526         0.751171
 C        -2.260537         1.505003         0.425474
 H        -3.205335         0.804806         3.208862
 H        -0.126994         2.507104         2.475131
 H        -0.538786         0.680725         2.434483
 H        -0.981121        -0.648594        -0.084695
 H         0.899972         2.743091        -0.149301
 H        -0.457970         2.573427        -1.310410
 H        -0.530006         4.202493         1.296741
 H        -1.259914         4.353726        -0.316542
 H        -3.246890         3.615167         0.859962
 H        -3.043702         1.000412        -0.087914
