19
Iteration:   342charge 0 multiplicity 1
 O        -3.121279         1.929049         3.035179
 C        -2.225793         1.899483         1.971345
 C        -0.837044         1.322188         2.063907
 C        -0.805737         1.214277         0.550330
 O        -0.120809         0.060876         0.023394
 C        -0.106143         2.551821        -0.089862
 C        -1.011376         3.722034         0.274088
 C        -2.297577         3.012834         0.804397
 C        -2.312965         1.526916         0.522062
 H        -3.900214         1.364086         2.758778
 H         0.039896         1.846408         2.414683
 H        -0.849267         0.259276         2.408384
 H         0.378415        -0.345361         0.758204
 H         1.008032         2.615580         0.125539
 H        -0.112616         2.308610        -1.178574
 H        -0.654127         4.200914         1.156780
 H        -1.207107         4.371800        -0.558124
 H        -3.266097         3.450460         0.577759
 H        -2.982819         0.981372        -0.190844
