19
Iteration:  1150charge 0 multiplicity 1
 O        -3.093635         1.794978         3.007252
 C        -2.173892         1.959622         1.905512
 C        -0.800953         1.515586         2.030595
 C        -0.678307         1.248018         0.497724
 O        -0.263693         0.081455         0.060053
 C        -0.113906         2.446451        -0.158535
 C        -0.993188         3.641452         0.367362
 C        -2.330842         3.028365         0.799594
 C        -2.367668         1.506162         0.483096
 H        -2.658045         1.205183         3.704358
 H        -0.161117         2.343676         2.572694
 H        -0.724843         0.664090         2.673832
 H        -0.395683        -0.553245         0.797006
 H         0.859977         2.788369         0.138992
 H        -0.157109         2.251542        -1.258594
 H        -0.525963         4.232356         1.184726
 H        -1.306474         4.334293        -0.420469
 H        -3.238131         3.630947         0.810521
 H        -3.052226         0.812258        -0.032386
