19
Iteration:  4573
 O        -3.038263         1.882510         3.082941
 C        -2.230927         1.864364         1.991231
 C        -0.787659         1.463757         2.136429
 C        -0.685142         1.296994         0.536708
 O        -0.400417         0.079817        -0.041439
 C        -0.034157         2.627438        -0.119190
 C        -1.071678         3.635103         0.310626
 C        -2.347465         2.911291         0.720987
 C        -2.231076         1.454390         0.497274
 H        -3.248716         1.026613         3.489936
 H        -0.019798         2.096165         2.607861
 H        -0.849680         0.471767         2.479203
 H         0.492855        -0.200877         0.299598
 H         0.973887         2.844856         0.004749
 H        -0.172549         2.503183        -1.149545
 H        -0.708717         4.349173         0.979100
 H        -1.248448         4.314504        -0.533897
 H        -3.407451         3.231626         0.869436
 H        -2.721616         0.809131        -0.238322
