19
Iteration:  1695
 O        -3.227119         1.899565         2.853485
 C        -2.138941         1.900025         2.030460
 C        -0.677142         1.430108         2.147316
 C        -0.741574         1.242725         0.571633
 O        -0.306399         0.064084         0.123669
 C        -0.183729         2.514237        -0.333475
 C        -0.996672         3.740471         0.298704
 C        -2.233904         2.944150         0.939667
 C        -2.279716         1.458575         0.584233
 H        -3.438863         1.042310         3.179107
 H         0.084361         2.027834         2.568091
 H        -0.554613         0.376856         2.578201
 H         0.558468         0.157567        -0.247331
 H         0.933738         2.629741        -0.272329
 H        -0.523098         2.599324        -1.344578
 H        -0.580192         4.333829         1.096734
 H        -1.356841         4.350338        -0.536067
 H        -3.214783         3.352380         0.821599
 H        -2.938648         0.829566         0.026244
