19
Iteration:   675charge 0 multiplicity 1
 O        -3.165586         1.888679         3.072834
 C        -2.206381         1.976295         1.993208
 C        -0.825618         1.282832         2.072706
 C        -0.704132         1.291676         0.494841
 O        -0.206927        -0.007143         0.115800
 C         0.005457         2.502849        -0.086015
 C        -1.061925         3.720176         0.263544
 C        -2.312540         2.967943         0.896520
 C        -2.264845         1.635686         0.345801
 H        -3.224228         0.960280         3.267840
 H        -0.092573         1.675940         2.804371
 H        -0.889191         0.166337         2.190798
 H        -0.625373        -0.226811        -0.766889
 H         0.935218         2.788931         0.422370
 H         0.207360         2.471023        -1.225124
 H        -0.708071         4.523758         0.878900
 H        -1.471639         4.300196        -0.594822
 H        -3.307677         3.459450         0.860549
 H        -3.000255         1.130431        -0.251675
