19
Iteration:  1035
 O        -2.904116         1.969630         3.111011
 C        -2.257670         2.016100         1.952619
 C        -0.910531         1.328132         2.013470
 C        -0.800362         1.246239         0.496197
 O        -0.112248         0.125826        -0.052826
 C        -0.172927         2.492418        -0.050187
 C        -1.062244         3.618537         0.376402
 C        -2.317027         2.921803         0.822862
 C        -2.319520         1.428246         0.400826
 H        -3.898438         2.148044         3.012168
 H        -0.172738         2.012467         2.482243
 H        -0.723333         0.386476         2.669922
 H        -0.139200        -0.413631         0.781815
 H         0.871203         2.679858         0.293281
 H        -0.073389         2.306694        -1.140535
 H        -0.450743         4.035767         1.164652
 H        -1.285248         4.324459        -0.445990
 H        -3.236115         3.432605         0.529849
 H        -3.117612         0.825582        -0.066772
