19
Iteration:  3352charge 0 multiplicity 1
 O        -3.004185         1.758816         3.076847
 C        -2.226492         1.868831         1.971008
 C        -0.730624         1.509064         2.118323
 C        -0.760634         1.366262         0.489062
 O        -0.178607         0.019092         0.221987
 C        -0.263786         2.455772        -0.332190
 C        -1.039443         3.637791         0.321698
 C        -2.339685         2.999585         0.899633
 C        -2.278686         1.527085         0.450366
 H        -3.949852         2.150276         2.949367
 H        -0.050548         2.312442         2.485547
 H        -0.568487         0.485516         2.540891
 H        -0.100218        -0.063952        -0.727379
 H         0.830396         2.772601        -0.384721
 H        -0.536397         2.340506        -1.442302
 H        -0.216633         4.037155         0.934974
 H        -1.237460         4.538492        -0.216554
 H        -3.263872         3.543898         0.667765
 H        -2.885078         0.933213        -0.223302
