19
Iteration:  1324
 O        -3.178752         1.937390         2.925692
 C        -2.127235         1.916002         2.005724
 C        -0.747977         1.469598         2.076800
 C        -0.792993         1.225374         0.476325
 O        -0.164493         0.080403         0.119733
 C        -0.206813         2.402773        -0.288711
 C        -1.014339         3.644095         0.366112
 C        -2.236082         3.026143         0.989163
 C        -2.340120         1.484365         0.549880
 H        -3.564781         1.074509         2.997972
 H        -0.103790         2.168509         2.630672
 H        -0.542398         0.457104         2.531703
 H         0.166269         0.135116        -0.772545
 H         0.871022         2.619028        -0.278126
 H        -0.486890         2.161921        -1.362137
 H        -0.231040         4.030294         1.067147
 H        -1.145916         4.491623        -0.330389
 H        -3.250005         3.430150         1.000597
 H        -3.214584         1.010154         0.054719
