19
Iteration:  1576
 O        -3.125391         1.970954         3.044594
 C        -2.178445         1.930563         2.040419
 C        -0.735951         1.277006         2.129294
 C        -0.740772         1.284220         0.582330
 O        -0.259414         0.161816        -0.077548
 C        -0.030553         2.480925        -0.025569
 C        -1.119163         3.635308         0.066847
 C        -2.287750         2.957069         0.859348
 C        -2.346915         1.534365         0.572952
 H        -3.500343         1.020336         3.133629
 H         0.071899         1.838388         2.622805
 H        -0.682472         0.199260         2.444688
 H         0.683829        -0.089418        -0.097878
 H         0.930872         2.700775         0.476983
 H         0.113511         2.231486        -1.091102
 H        -0.887655         4.527765         0.623065
 H        -1.467842         3.894565        -0.925317
 H        -3.317123         3.338892         0.941672
 H        -3.097032         0.912221         0.055505
