19
Iteration:  3996charge 0 multiplicity 1
 O        -3.046939         1.956562         3.013541
 C        -2.137732         2.017253         1.936555
 C        -0.828283         1.380333         2.086643
 C        -0.740919         1.168924         0.511080
 O        -0.119494         0.027977        -0.152863
 C        -0.124500         2.521957         0.066581
 C        -1.175021         3.660703         0.310065
 C        -2.374627         2.905154         0.846665
 C        -2.329821         1.386883         0.522722
 H        -3.315554         2.865154         3.065172
 H         0.074466         1.838092         2.587028
 H        -1.035558         0.389532         2.622417
 H         0.656462         0.279077        -0.647538
 H         0.733336         2.695769         0.805357
 H         0.176797         2.607631        -0.948391
 H        -0.854157         4.445656         1.058433
 H        -1.194498         4.300608        -0.587452
 H        -3.400285         3.387437         0.830051
 H        -3.226184         0.812329         0.435684
