19
Iteration:  3201charge 0 multiplicity 1
 O        -3.119587         1.943461         3.202606
 C        -2.201292         1.899568         2.011094
 C        -0.759095         1.532297         2.112913
 C        -0.714309         1.250360         0.469098
 O        -0.191845         0.048942        -0.041592
 C        -0.103447         2.497925        -0.192761
 C        -1.059767         3.602914         0.315338
 C        -2.395212         2.889623         0.803249
 C        -2.266134         1.397695         0.431864
 H        -3.178618         2.884536         3.552183
 H        -0.045559         2.218860         2.567513
 H        -0.795397         0.590050         2.755618
 H         0.410925         0.095504        -0.790676
 H         0.950732         2.630639         0.067887
 H        -0.187843         2.248656        -1.246156
 H        -0.755394         4.374115         1.056647
 H        -1.561846         4.110957        -0.524527
 H        -3.384524         3.339827         0.883223
 H        -3.058037         0.655671         0.058240
