19
Iteration:  3636charge 0 multiplicity 1
 O        -3.021143         1.873621         3.059070
 C        -2.193057         1.994806         1.950733
 C        -0.758702         1.378136         2.141434
 C        -0.671913         1.249876         0.513843
 O        -0.201605         0.046588        -0.037363
 C        -0.116186         2.545204        -0.022761
 C        -1.168630         3.643928         0.195930
 C        -2.427418         2.983864         0.746928
 C        -2.295695         1.383809         0.580638
 H        -2.952933         2.734075         3.620775
 H         0.010092         2.038988         2.541498
 H        -0.806749         0.335447         2.666036
 H        -0.226433         0.173656        -0.988335
 H         0.734848         2.760995         0.687633
 H         0.343989         2.240344        -0.948086
 H        -0.830564         4.407419         0.985769
 H        -1.355546         4.191265        -0.751145
 H        -3.389895         3.449191         0.873604
 H        -2.963050         0.661692         0.045177
