19
Iteration:  3751charge 0 multiplicity 1
 O        -3.084331         1.793130         3.054790
 C        -2.178721         1.898322         1.942973
 C        -0.747563         1.472299         1.980528
 C        -0.746512         1.295052         0.522576
 O        -0.114254         0.059875         0.115551
 C        -0.133529         2.527373        -0.189097
 C        -1.086809         3.676926         0.293149
 C        -2.322842         2.984151         0.894817
 C        -2.353832         1.432522         0.516655
 H        -3.104235         2.685337         3.509527
 H        -0.029390         2.258840         2.438856
 H        -0.783502         0.480745         2.368462
 H        -0.717151        -0.646185        -0.156675
 H         0.863455         2.540258         0.175843
 H        -0.065961         2.453508        -1.268229
 H        -0.682757         4.450914         0.950168
 H        -1.522693         4.178535        -0.588999
 H        -3.346193         3.474719         0.733290
 H        -3.167693         0.907860        -0.059078
