19
Iteration:  4313
 O        -3.121803         1.788091         2.946624
 C        -2.187597         1.957255         1.958008
 C        -0.715840         1.436702         2.073872
 C        -0.793318         1.254220         0.476837
 O        -0.263548         0.066066         0.074386
 C        -0.109269         2.458794        -0.160059
 C        -1.110213         3.752886         0.342747
 C        -2.335285         3.019870         0.879820
 C        -2.263401         1.475489         0.483470
 H        -2.648353         1.418579         3.756710
 H         0.073200         2.116659         2.514802
 H        -0.806651         0.471151         2.625119
 H         0.682077         0.130171        -0.007992
 H         0.950964         2.586336         0.165948
 H        -0.207571         2.336105        -1.199787
 H        -0.588012         4.299591         1.152372
 H        -1.186073         4.288711        -0.552674
 H        -3.370459         3.329090         0.760599
 H        -3.144653         0.972766         0.149099
