19
Iteration:   735
 O        -3.239810         1.931132         2.997424
 C        -2.249209         1.910256         1.986926
 C        -0.732794         1.430815         2.136953
 C        -0.621733         1.234086         0.496155
 O        -0.303542         0.005838        -0.031866
 C        -0.117316         2.524857        -0.200322
 C        -0.973887         3.675637         0.444786
 C        -2.265850         2.966458         0.842772
 C        -2.219402         1.425610         0.548612
 H        -4.152436         2.096602         2.812940
 H        -0.032350         2.142369         2.668014
 H        -0.725158         0.455048         2.659483
 H         0.401815         0.072834        -0.685153
 H         0.970839         2.794255        -0.133471
 H        -0.243983         2.557011        -1.297953
 H        -0.526756         4.119946         1.398909
 H        -1.253306         4.336403        -0.370108
 H        -3.240456         3.412706         0.866984
 H        -2.924447         0.881677        -0.072573
