19
Iteration:  4561charge 0 multiplicity 1
 O        -3.057886         1.955122         3.049662
 C        -2.142665         1.916627         1.914201
 C        -0.720457         1.384590         2.089717
 C        -0.730216         1.328016         0.547666
 O        -0.372853         0.081556        -0.032226
 C        -0.043620         2.550081        -0.099844
 C        -1.147968         3.693933         0.341859
 C        -2.385529         2.855711         0.803396
 C        -2.245690         1.436791         0.431684
 H        -2.871843         1.027901         3.443132
 H        -0.029263         2.073416         2.593518
 H        -0.620903         0.482259         2.600899
 H         0.439578        -0.219240         0.355966
 H         0.845535         2.756297         0.430407
 H         0.132861         2.418470        -1.096690
 H        -0.857414         4.119809         1.211242
 H        -1.395282         4.433997        -0.431235
 H        -3.368830         3.434763         0.665457
 H        -2.976546         0.781953        -0.041738
