19
Iteration:  4294
 O        -3.179098         1.716917         2.899614
 C        -2.173704         1.869738         1.959089
 C        -0.710813         1.564924         2.041008
 C        -0.742659         1.251460         0.506410
 O        -0.238370        -0.057572         0.095928
 C        -0.191578         2.586701        -0.218115
 C        -1.048782         3.629527         0.323816
 C        -2.279699         3.027769         0.935139
 C        -2.343565         1.599439         0.535718
 H        -2.812880         1.605000         3.857957
 H        -0.053389         2.345302         2.293208
 H        -0.556818         0.473234         2.464173
 H         0.700372        -0.122028         0.383808
 H         0.955097         2.733173         0.102622
 H        -0.108108         2.441390        -1.305227
 H        -0.477113         4.369597         1.012160
 H        -1.546085         4.231465        -0.553041
 H        -3.082995         3.746312         1.297048
 H        -3.041278         1.140577        -0.122301
