19
Iteration:  2300
 O        -2.947350         1.992083         3.077922
 C        -2.039651         2.017113         2.005001
 C        -0.753594         1.343807         2.084608
 C        -0.754740         1.192325         0.483793
 O        -0.296852         0.074242        -0.168593
 C        -0.151905         2.534815        -0.035533
 C        -1.258216         3.635794         0.188843
 C        -2.363858         2.933079         0.801502
 C        -2.308874         1.489490         0.629003
 H        -2.982059         1.106844         3.367848
 H        -0.062477         1.944619         2.667192
 H        -0.793842         0.379882         2.540888
 H         0.483123        -0.228918         0.383579
 H         0.697201         2.845779         0.584441
 H         0.191892         2.555596        -1.104361
 H        -0.726880         4.298635         0.885992
 H        -1.373265         4.110342        -0.775836
 H        -3.409406         3.323123         0.889235
 H        -3.129082         0.733425         0.476332
