19
Iteration:   744
 O        -3.268118         1.906302         3.008166
 C        -2.225463         1.910388         1.979922
 C        -0.728498         1.446298         2.248146
 C        -0.698023         1.307960         0.490677
 O        -0.299034        -0.042705        -0.056044
 C        -0.132993         2.543429        -0.271991
 C        -1.006499         3.703429         0.494167
 C        -2.228841         2.933134         0.859449
 C        -2.170934         1.420314         0.524014
 H        -4.005763         2.357703         2.596900
 H         0.019306         2.062177         2.888052
 H        -0.607561         0.399092         2.430177
 H         0.519635         0.022435        -0.579024
 H         0.973391         2.590808        -0.088498
 H        -0.441708         2.423716        -1.394505
 H        -0.335478         4.328084         1.125380
 H        -1.118680         4.459256        -0.250943
 H        -3.205719         3.305123         0.491025
 H        -3.014057         0.926515         0.025512
