19
Iteration:  4080charge 0 multiplicity 1
 O        -3.133563         1.575035         2.812277
 C        -2.136067         2.100973         1.952987
 C        -0.686271         1.524866         2.065063
 C        -0.846507         1.271399         0.517401
 O        -0.205314         0.080953         0.229304
 C        -0.230641         2.443469        -0.202072
 C        -0.973605         3.704674         0.419682
 C        -2.294452         3.080523         0.826419
 C        -2.317062         1.474721         0.531135
 H        -2.902187         1.939461         3.737595
 H         0.109699         2.241226         2.341649
 H        -0.568811         0.599949         2.458590
 H        -0.476298        -0.318991        -0.650707
 H         0.800498         2.515074        -0.108261
 H        -0.442608         2.443212        -1.332059
 H        -0.492402         4.044894         1.333503
 H        -1.068318         4.370932        -0.447644
 H        -3.287141         3.636353         0.800201
 H        -3.016932         0.698331         0.238465
