19
Iteration:  3849charge 0 multiplicity 1
 O        -3.099293         1.812085         2.925388
 C        -2.138099         2.024226         2.001730
 C        -0.740802         1.372335         2.071347
 C        -0.749683         1.269166         0.495193
 O        -0.160800         0.044402         0.093807
 C        -0.098086         2.522796        -0.132882
 C        -1.125617         3.696414         0.311702
 C        -2.307315         2.942336         0.834360
 C        -2.330094         1.484355         0.538178
 H        -3.325112         2.496439         3.624355
 H         0.096788         1.867177         2.488906
 H        -0.904659         0.373349         2.354957
 H        -0.660343        -0.403267        -0.608957
 H         0.836822         2.806430         0.271904
 H         0.047393         2.286489        -1.185358
 H        -0.749227         4.431397         1.034859
 H        -1.547141         4.286570        -0.556455
 H        -3.241997         3.480378         0.943523
 H        -3.086919         0.806593         0.251526
