19
Iteration:  4882charge 0 multiplicity 1
 O        -3.070361         1.915316         3.017951
 C        -2.180942         1.896353         1.973570
 C        -0.760590         1.341380         2.116127
 C        -0.694346         1.286569         0.524313
 O        -0.279024         0.075930         0.007872
 C        -0.075763         2.623169        -0.002822
 C        -1.151252         3.678137         0.235706
 C        -2.288410         2.909627         0.861568
 C        -2.258387         1.488896         0.495657
 H        -3.538162         1.043492         3.283208
 H        -0.007283         1.970368         2.517449
 H        -0.522163         0.383623         2.667698
 H        -0.554921        -0.050140        -0.941861
 H         0.927018         2.868965         0.355256
 H         0.053244         2.571471        -1.128368
 H        -0.814401         4.405729         0.992430
 H        -1.444137         4.069145        -0.750060
 H        -3.282835         3.270775         0.538710
 H        -2.886757         0.801671        -0.027206
