19
Iteration:   816charge 0 multiplicity 1
 O        -3.115188         1.777452         3.007224
 C        -2.292739         1.917285         1.904806
 C        -0.747598         1.472566         2.043644
 C        -0.716841         1.258020         0.508007
 O        -0.308309        -0.002660         0.047917
 C        -0.010655         2.566169        -0.057659
 C        -1.022820         3.703510         0.280465
 C        -2.283573         3.036559         0.851811
 C        -2.297484         1.528006         0.440877
 H        -2.595375         1.411713         3.702581
 H        -0.051490         1.972463         2.664612
 H        -0.870344         0.490716         2.567461
 H        -0.381445        -0.696700         0.749319
 H         0.949293         2.773480         0.351685
 H         0.008287         2.464791        -1.108023
 H        -0.654872         4.496055         0.882407
 H        -1.449317         4.380442        -0.513574
 H        -3.248141         3.537870         0.580228
 H        -3.053148         0.865978        -0.068284
