19
Iteration:  4612
 O        -3.163516         1.810068         2.880440
 C        -2.088768         1.963672         2.038037
 C        -0.657175         1.455199         2.033345
 C        -0.769276         1.294953         0.492395
 O        -0.215583         0.026369         0.095887
 C        -0.233539         2.479467        -0.227786
 C        -1.035514         3.635635         0.315008
 C        -2.346473         2.981314         0.960169
 C        -2.353422         1.556186         0.626832
 H        -3.449044         0.928152         2.643265
 H         0.141353         2.099504         2.475771
 H        -0.573802         0.461458         2.590434
 H         0.725935         0.157934        -0.091529
 H         0.894376         2.688949         0.005512
 H        -0.450244         2.435738        -1.363386
 H        -0.447106         4.202142         1.150601
 H        -1.323087         4.236788        -0.571598
 H        -3.053337         3.804047         0.973873
 H        -3.176302         1.082131         0.076264
