19
Iteration:   169
 O        -3.128665         2.036043         2.953738
 C        -2.213061         2.000028         1.943610
 C        -0.814030         1.454004         2.068616
 C        -0.705065         1.248570         0.486548
 O        -0.126890         0.030928         0.043587
 C        -0.096003         2.524462        -0.183590
 C        -1.116201         3.557701         0.377258
 C        -2.407432         2.904245         0.837254
 C        -2.281496         1.431302         0.514263
 H        -3.244667         1.144800         3.318110
 H        -0.107047         1.972368         2.624045
 H        -0.703387         0.487423         2.598809
 H         0.470422        -0.189924         0.769016
 H         0.933827         2.805451         0.064205
 H        -0.191668         2.544688        -1.247567
 H        -0.660991         4.178092         1.186544
 H        -1.232261         4.292940        -0.465466
 H        -3.310548         3.490264         0.941331
 H        -2.849058         0.644092         0.079083
