19
Iteration:  1206charge 0 multiplicity 1
 O        -3.113606         2.094204         2.971766
 C        -2.148923         1.888451         1.997527
 C        -0.731134         1.269929         2.159440
 C        -0.785774         1.221475         0.590790
 O        -0.160609         0.192174        -0.109488
 C        -0.219290         2.455966        -0.112250
 C        -1.043540         3.699162         0.291337
 C        -2.290280         2.923451         0.814601
 C        -2.303763         1.446809         0.553543
 H        -3.681890         1.369234         3.146273
 H         0.097157         1.755235         2.879183
 H        -0.858009         0.241330         2.459999
 H         0.044639        -0.581760         0.468782
 H         0.848396         2.661204        -0.073952
 H        -0.368924         2.248806        -1.200058
 H        -0.601191         4.207493         1.192389
 H        -1.241257         4.460556        -0.451947
 H        -3.315525         3.347775         0.763355
 H        -2.840297         0.740379        -0.163541
