19
Iteration:  1534charge 0 multiplicity 1
 O        -3.126030         1.943782         3.021847
 C        -2.138455         1.955359         1.990829
 C        -0.740552         1.349309         2.015070
 C        -0.725082         1.264042         0.518883
 O        -0.275627        -0.014438         0.039515
 C        -0.094726         2.548712        -0.029978
 C        -1.121630         3.748257         0.263550
 C        -2.357931         2.899074         0.791294
 C        -2.281508         1.480168         0.506622
 H        -2.900038         1.511682         3.883557
 H         0.137721         1.857980         2.543569
 H        -0.862997         0.388822         2.422819
 H         0.569118         0.205754        -0.327332
 H         0.911540         2.698520         0.378142
 H        -0.091099         2.339596        -1.129867
 H        -0.625869         4.467533         0.960194
 H        -1.325379         4.213679        -0.694071
 H        -3.348218         3.385324         0.717848
 H        -3.107320         1.001060        -0.049944
