19
Iteration:   708charge 0 multiplicity 1
 O        -3.016611         1.853729         2.990388
 C        -2.189950         1.972447         1.895330
 C        -0.756959         1.408592         2.114670
 C        -0.820324         1.220606         0.468354
 O        -0.232722         0.060354         0.096889
 C        -0.127795         2.415868        -0.021613
 C        -0.989653         3.704086         0.398251
 C        -2.308107         3.009020         0.790563
 C        -2.360876         1.539255         0.420068
 H        -3.872408         1.423455         2.949077
 H        -0.002336         1.990702         2.680654
 H        -0.807457         0.348297         2.448235
 H         0.263895         0.250682        -0.698975
 H         0.817053         2.489211         0.515724
 H         0.140970         2.504684        -1.147562
 H        -0.644754         4.283367         1.243911
 H        -1.260720         4.232542        -0.544088
 H        -3.344157         3.459255         0.746798
 H        -3.233046         1.032662        -0.011647
