19
Iteration:   403charge 0 multiplicity 1
 O        -3.253172         1.799159         2.773761
 C        -2.100042         1.925319         1.948267
 C        -0.693740         1.573108         2.182499
 C        -0.734735         1.277769         0.491059
 O        -0.397027        -0.070887         0.043477
 C        -0.105937         2.565194        -0.105860
 C        -1.042386         3.677427         0.356863
 C        -2.240891         2.970685         0.811071
 C        -2.246475         1.501408         0.563140
 H        -3.001210         1.407065         3.639329
 H        -0.052209         2.391121         2.660630
 H        -0.428327         0.614669         2.669094
 H         0.573638        -0.242883         0.090122
 H         0.909539         2.682241         0.167961
 H        -0.242741         2.545883        -1.191156
 H        -0.643357         4.223613         1.294097
 H        -1.080538         4.478768        -0.439311
 H        -3.199195         3.449605         1.024913
 H        -3.056272         0.780362         0.391113
