19
Iteration:   898
 O        -3.082422         2.003847         2.984494
 C        -2.212620         1.894357         1.945805
 C        -0.818389         1.359214         2.106699
 C        -0.731400         1.258952         0.470285
 O        -0.135907         0.080850         0.093198
 C        -0.216323         2.507434        -0.158131
 C        -0.984994         3.682445         0.387976
 C        -2.311857         2.909985         0.828247
 C        -2.282684         1.452287         0.551668
 H        -3.768440         1.324413         3.006222
 H        -0.145778         2.100631         2.640224
 H        -0.745083         0.357936         2.494492
 H        -0.302712         0.054160        -0.877172
 H         0.908688         2.576086        -0.139301
 H        -0.349268         2.504063        -1.299669
 H        -0.407391         4.131843         1.249863
 H        -1.229587         4.316854        -0.465549
 H        -3.238004         3.469899         0.847253
 H        -3.102671         0.915930         0.080424
