19
Iteration:  2476charge 0 multiplicity 1
 O        -2.982571         1.985586         3.147060
 C        -2.181495         1.894861         1.981164
 C        -0.723708         1.448594         2.117922
 C        -0.753125         1.206907         0.530698
 O        -0.245872         0.092346        -0.141330
 C        -0.101207         2.470587        -0.039152
 C        -1.102211         3.707794         0.223191
 C        -2.363225         2.922855         0.755533
 C        -2.334354         1.431939         0.576038
 H        -2.853540         1.317467         3.824122
 H        -0.194574         2.402641         2.381997
 H        -0.622849         0.629850         2.826657
 H        -0.903719        -0.281320        -0.802574
 H         0.886122         2.637986         0.393066
 H         0.011142         2.147830        -1.102269
 H        -0.899650         4.418595         1.040470
 H        -1.302206         4.223048        -0.708436
 H        -3.377888         3.311784         0.699453
 H        -2.949943         0.826566        -0.026507
