19
Iteration:  1578
 O        -3.127196         1.967448         3.046951
 C        -2.170009         1.947771         2.027853
 C        -0.728833         1.261074         2.129102
 C        -0.758202         1.256038         0.574931
 O        -0.270490         0.159508        -0.072680
 C        -0.020068         2.487980        -0.030344
 C        -1.124416         3.651816         0.085742
 C        -2.289817         2.974657         0.842571
 C        -2.329692         1.516789         0.583550
 H        -3.538870         1.038192         3.087056
 H         0.094854         1.856077         2.639858
 H        -0.624172         0.252503         2.402034
 H         0.657248        -0.038781        -0.029841
 H         0.891202         2.736195         0.487991
 H         0.095896         2.233254        -1.114167
 H        -0.919263         4.584021         0.651660
 H        -1.461775         3.852780        -0.919348
 H        -3.311134         3.301602         0.912595
 H        -3.052464         0.890415         0.097067
