19
Iteration:  4367charge 0 multiplicity 1
 O        -3.095782         2.100690         2.993023
 C        -2.181607         1.863117         1.982609
 C        -0.698706         1.370691         2.041762
 C        -0.782358         1.267412         0.493994
 O        -0.190573         0.056473        -0.084512
 C        -0.168850         2.564558        -0.006940
 C        -1.138653         3.630559         0.398166
 C        -2.271619         2.841920         0.884075
 C        -2.354159         1.390475         0.492508
 H        -3.649711         1.294384         3.173462
 H         0.012993         2.168726         2.412418
 H        -0.505155         0.385466         2.486383
 H         0.746137         0.165718        -0.173840
 H         0.892351         2.776678         0.159751
 H        -0.098767         2.463932        -1.112067
 H        -0.801498         4.437536         1.081065
 H        -1.263358         4.241022        -0.486938
 H        -3.180102         3.484170         0.971817
 H        -3.004268         0.803809        -0.120436
