19
Iteration:  3188charge 0 multiplicity 1
 O        -3.127159         1.866172         3.087091
 C        -2.250970         1.929523         1.992387
 C        -0.780035         1.587215         2.164248
 C        -0.668206         1.281974         0.546674
 O        -0.287196         0.038536        -0.043651
 C        -0.143537         2.464192        -0.237777
 C        -1.083721         3.675670         0.270863
 C        -2.300985         2.838142         0.846172
 C        -2.208927         1.352095         0.593565
 H        -2.929890         2.680188         3.533127
 H        -0.215664         2.481741         2.557263
 H        -0.566571         0.671423         2.717425
 H         0.117584         0.348207        -0.889487
 H         0.964059         2.604504        -0.128488
 H        -0.329994         2.438757        -1.344763
 H        -0.509554         4.203636         1.062590
 H        -1.174729         4.409186        -0.522306
 H        -3.220856         3.325604         0.641189
 H        -2.855420         0.681347        -0.065425
