19
Iteration:  3983
 O        -3.097729         1.968271         3.121931
 C        -2.230795         1.947657         1.980509
 C        -0.751146         1.364132         2.014768
 C        -0.761889         1.211563         0.449448
 O        -0.166288         0.070456        -0.123473
 C        -0.054125         2.518507         0.105008
 C        -1.132885         3.652007         0.283425
 C        -2.365263         2.889513         0.783660
 C        -2.316458         1.397423         0.550324
 H        -3.393034         2.920079         3.393335
 H        -0.036032         2.010699         2.510293
 H        -0.731866         0.425714         2.452778
 H         0.677149         0.384966        -0.549203
 H         0.829603         2.657641         0.717631
 H         0.346732         2.448441        -0.891481
 H        -0.742308         4.377317         1.025813
 H        -1.493991         4.083543        -0.689451
 H        -3.419161         3.283813         0.569933
 H        -3.045140         0.888731        -0.157373
