19
Iteration:  1698charge 0 multiplicity 1
 O        -3.238644         1.924132         2.872766
 C        -2.149125         1.881355         2.046679
 C        -0.676698         1.429903         2.153484
 C        -0.735561         1.270672         0.574736
 O        -0.323705         0.044810         0.107358
 C        -0.168042         2.531573        -0.316573
 C        -1.003961         3.706773         0.290204
 C        -2.247944         2.930372         0.933387
 C        -2.254312         1.447817         0.550999
 H        -3.337630         1.017926         3.230220
 H         0.098847         2.086290         2.694523
 H        -0.501007         0.417999         2.506021
 H         0.578605         0.176153        -0.294906
 H         0.885767         2.781669        -0.232367
 H        -0.470183         2.651804        -1.383107
 H        -0.513004         4.346105         1.045877
 H        -1.278872         4.327421        -0.542098
 H        -3.240959         3.387582         0.840023
 H        -2.985477         0.802046         0.025334
