19
Iteration:  4291charge 0 multiplicity 1
 O        -3.196148         1.701852         2.916117
 C        -2.193953         1.840337         1.979215
 C        -0.707029         1.555416         2.046224
 C        -0.741723         1.234824         0.479123
 O        -0.254420        -0.040294         0.108586
 C        -0.154333         2.585165        -0.255075
 C        -1.065242         3.670534         0.333824
 C        -2.262922         3.030952         0.914248
 C        -2.313338         1.601249         0.536046
 H        -2.869101         1.666178         3.793386
 H         0.016060         2.394824         2.297166
 H        -0.574032         0.573082         2.567769
 H         0.682402        -0.190818         0.444830
 H         0.927324         2.756715         0.039302
 H        -0.223481         2.487759        -1.306605
 H        -0.527161         4.393573         0.998436
 H        -1.430514         4.122294        -0.572734
 H        -2.990050         3.675339         1.350533
 H        -3.131953         1.181950        -0.055156
