19
Iteration:  2249charge 0 multiplicity 1
 O        -3.080434         1.910852         3.021023
 C        -2.133247         1.887171         2.065758
 C        -0.629266         1.508849         2.140028
 C        -0.728037         1.302610         0.451646
 O        -0.340073        -0.064890         0.101766
 C        -0.146530         2.558512        -0.436698
 C        -1.121733         3.709002         0.302087
 C        -2.293924         2.893230         0.992676
 C        -2.319000         1.476832         0.566891
 H        -3.574530         1.067619         2.965268
 H         0.069238         2.218144         2.716447
 H        -0.522993         0.473303         2.474056
 H         0.370728         0.097869        -0.534670
 H         0.899082         2.788282        -0.127235
 H        -0.363779         2.548967        -1.525531
 H        -0.472826         4.328969         1.000240
 H        -1.461220         4.348299        -0.541961
 H        -3.220952         3.437234         1.071467
 H        -3.116453         0.997073        -0.079435
