19
Iteration:  1867charge 0 multiplicity 1
 O        -3.036601         1.831957         3.060277
 C        -2.223679         1.877927         1.913085
 C        -0.750094         1.474710         1.977084
 C        -0.716420         1.316888         0.502306
 O        -0.292080         0.045870         0.290000
 C        -0.127957         2.526147        -0.299825
 C        -1.072393         3.715097         0.373480
 C        -2.290865         2.930225         0.908421
 C        -2.255065         1.519553         0.343686
 H        -3.092407         0.913047         3.341234
 H        -0.165828         2.271865         2.509443
 H        -0.560729         0.586247         2.597449
 H        -1.004213        -0.207991        -0.359514
 H         0.988427         2.567145        -0.183268
 H        -0.328093         2.362874        -1.369775
 H        -0.506042         4.110084         1.248423
 H        -1.293019         4.631768        -0.231109
 H        -3.259562         3.424356         0.903812
 H        -2.858423         0.850499        -0.309797
