19
Iteration:  1484
 O        -3.227170         1.925759         3.071960
 C        -2.258068         1.934458         1.953038
 C        -0.684015         1.511232         2.058780
 C        -0.699439         1.279596         0.501826
 O        -0.239230        -0.041791         0.062756
 C        -0.252016         2.511110        -0.244715
 C        -1.006255         3.641436         0.415768
 C        -2.259361         2.947122         0.887309
 C        -2.239208         1.469507         0.477045
 H        -3.495113         1.018035         3.161602
 H         0.001883         2.352804         2.191172
 H        -0.311836         0.661363         2.757513
 H         0.627658         0.142840        -0.361696
 H         0.891816         2.476702        -0.183596
 H        -0.665102         2.436733        -1.256145
 H        -0.373732         4.045732         1.214069
 H        -1.179477         4.445125        -0.339499
 H        -3.062696         3.624987         0.756046
 H        -2.781350         0.995592        -0.312891
