19
Iteration:  2716charge 0 multiplicity 1
 O        -2.961820         1.934268         3.167534
 C        -2.191822         1.939033         2.004698
 C        -0.750741         1.272482         2.102461
 C        -0.698176         1.251163         0.473580
 O        -0.195166         0.059471        -0.006882
 C        -0.198719         2.541608        -0.116939
 C        -1.132000         3.682676         0.261714
 C        -2.300091         2.937597         0.911806
 C        -2.293713         1.551249         0.438591
 H        -3.867905         2.021639         2.919196
 H         0.049158         1.807004         2.591436
 H        -0.704856         0.222705         2.345521
 H        -0.841324        -0.244000        -0.655250
 H         0.873676         2.662769         0.091360
 H        -0.253923         2.279515        -1.201292
 H        -0.758049         4.552309         0.796416
 H        -1.631362         4.161546        -0.570291
 H        -3.301249         3.415110         0.934983
 H        -2.834785         0.992759        -0.357263
