19
Iteration:  2296charge 0 multiplicity 1
 O        -2.948452         1.968245         3.065371
 C        -2.005823         2.029589         2.005132
 C        -0.766125         1.371711         2.152106
 C        -0.779546         1.189496         0.483917
 O        -0.279419         0.102775        -0.190249
 C        -0.137518         2.535709        -0.046588
 C        -1.227253         3.607260         0.164413
 C        -2.377275         2.956638         0.803713
 C        -2.335610         1.481821         0.658893
 H        -3.153842         1.000058         3.331951
 H         0.018495         1.999880         2.632392
 H        -0.850994         0.324960         2.636956
 H         0.510669        -0.182833         0.264829
 H         0.776555         2.635701         0.559421
 H         0.001620         2.389544        -1.115210
 H        -0.765527         4.295704         0.837009
 H        -1.373257         4.146611        -0.778748
 H        -3.425849         3.249198         0.899314
 H        -3.121999         0.828537         0.423356
