19
Iteration:  3646charge 0 multiplicity 1
 O        -3.026658         1.799232         3.136120
 C        -2.217937         1.938395         1.949289
 C        -0.828653         1.483671         2.124130
 C        -0.757354         1.235621         0.568584
 O        -0.227553         0.093539         0.013330
 C        -0.029740         2.501030        -0.066450
 C        -1.166385         3.614748         0.164516
 C        -2.344753         2.954641         0.776961
 C        -2.252476         1.452890         0.489541
 H        -2.851399         2.678147         3.653213
 H         0.017358         2.021270         2.555720
 H        -0.840785         0.426714         2.541036
 H         0.025203         0.280210        -0.902040
 H         0.953636         2.756636         0.451202
 H         0.060182         2.406530        -1.191525
 H        -0.709668         4.440471         0.824959
 H        -1.614492         4.108836        -0.711866
 H        -3.349848         3.432330         0.748968
 H        -3.035752         0.861088        -0.070783
