19
Iteration:  2336charge 0 multiplicity 1
 O        -2.904055         2.096351         3.103194
 C        -2.172676         1.816034         2.010374
 C        -0.756632         1.285938         2.041311
 C        -0.734504         1.274190         0.461700
 O        -0.366744        -0.003369         0.002279
 C        -0.128395         2.628892        -0.123213
 C        -1.228278         3.681855         0.280264
 C        -2.319195         2.798827         0.901563
 C        -2.250136         1.492016         0.361249
 H        -2.633354         1.518162         3.776390
 H        -0.239260         2.147930         2.527063
 H        -0.559504         0.322063         2.447002
 H         0.438128        -0.269614         0.514223
 H         0.798840         3.074000         0.394114
 H         0.064533         2.684258        -1.236385
 H        -1.031770         4.607511         0.954291
 H        -1.734426         4.201693        -0.613549
 H        -3.243886         3.299724         0.993455
 H        -3.030734         1.070323        -0.285931
