19
Iteration:  2350
 O        -2.930387         2.050250         3.133160
 C        -2.167364         1.847461         1.898327
 C        -0.764566         1.442407         2.064238
 C        -0.727348         1.279698         0.493788
 O        -0.315565         0.016963        -0.028480
 C        -0.187302         2.577743        -0.147935
 C        -1.191678         3.658941         0.313196
 C        -2.341645         2.929189         0.912792
 C        -2.303680         1.415692         0.420862
 H        -2.859638         1.183118         3.663377
 H         0.068373         1.942062         2.613043
 H        -0.802894         0.359407         2.480718
 H         0.628968        -0.173114         0.164065
 H         0.885607         2.662381         0.216447
 H        -0.024354         2.362460        -1.203633
 H        -0.545838         4.233551         0.977998
 H        -1.554440         4.288924        -0.550675
 H        -3.336037         3.396411         0.975735
 H        -2.908238         0.743936        -0.116200
