19
Iteration:  2123
 O        -2.979604         1.977222         3.184174
 C        -2.111362         1.968622         1.993474
 C        -0.749153         1.277322         2.075447
 C        -0.753653         1.237057         0.564169
 O        -0.318280         0.078693        -0.091315
 C        -0.129996         2.600577        -0.041971
 C        -1.127520         3.639023         0.136476
 C        -2.344470         2.897973         0.808962
 C        -2.284477         1.463082         0.530761
 H        -3.797493         1.604852         2.927825
 H         0.002770         1.881590         2.498612
 H        -0.899263         0.258784         2.515382
 H         0.679625        -0.037191        -0.109929
 H         0.806002         2.935718         0.424464
 H         0.136237         2.382080        -1.083986
 H        -0.823709         4.459954         0.823604
 H        -1.545072         4.239162        -0.695541
 H        -3.306726         3.399491         0.806620
 H        -3.056606         0.858057        -0.033767
