19
Iteration:   598
 O        -3.111287         1.929658         3.044731
 C        -2.209996         1.825202         1.901681
 C        -0.848437         1.406686         2.107015
 C        -0.790761         1.258826         0.485104
 O        -0.197911         0.037644         0.157342
 C        -0.136350         2.494018        -0.199411
 C        -0.930755         3.705553         0.463543
 C        -2.274168         3.013799         0.783529
 C        -2.295538         1.520949         0.375612
 H        -3.532473         1.030672         3.222808
 H        -0.079294         2.000984         2.594831
 H        -0.887006         0.417963         2.617336
 H         0.010005        -0.096021        -0.795348
 H         0.944258         2.612532        -0.051575
 H        -0.312179         2.620440        -1.327933
 H        -0.525558         4.061004         1.403747
 H        -1.143527         4.593237        -0.188139
 H        -3.246832         3.467127         0.891436
 H        -3.026308         0.996501        -0.237092
