19
Iteration:  1497
 O        -3.118608         1.957124         2.985461
 C        -2.197050         1.894973         1.954043
 C        -0.731672         1.617266         2.053119
 C        -0.741207         1.231159         0.535976
 O        -0.307888        -0.003460         0.065020
 C        -0.188686         2.492843        -0.202371
 C        -0.976768         3.653136         0.499040
 C        -2.308902         2.912113         0.818199
 C        -2.228858         1.411867         0.458405
 H        -3.219497         1.008843         3.417571
 H        -0.156046         2.357536         2.559604
 H        -0.627370         0.544978         2.556290
 H         0.456260         0.086951        -0.527168
 H         0.900864         2.818671        -0.304552
 H        -0.481652         2.417772        -1.251983
 H        -0.580139         4.147581         1.365768
 H        -1.204675         4.464796        -0.212451
 H        -3.360336         3.203265         0.743003
 H        -3.009297         1.009660        -0.185092
