19
Iteration:  2650charge 0 multiplicity 1
 O        -3.027288         1.876311         3.199512
 C        -2.182387         1.953154         2.017165
 C        -0.779408         1.521655         2.115823
 C        -0.794998         1.302258         0.525648
 O        -0.254984         0.055220        -0.136580
 C        -0.104451         2.373679        -0.186433
 C        -1.067737         3.597179         0.259841
 C        -2.313543         2.927356         0.955409
 C        -2.304528         1.508167         0.517528
 H        -3.868546         1.320548         3.080363
 H        -0.149947         2.366975         2.457769
 H        -0.653783         0.655085         2.760181
 H         0.414582         0.345842        -0.809359
 H         0.921818         2.568392         0.104024
 H        -0.133739         2.277475        -1.311372
 H        -0.458270         4.413852         0.619815
 H        -1.419794         4.056536        -0.645850
 H        -3.146752         3.696109         0.910662
 H        -3.004472         1.066962        -0.258289
