19
Iteration:  2940charge 0 multiplicity 1
 O        -3.110920         1.765683         3.013548
 C        -2.175001         1.919251         2.008360
 C        -0.755431         1.531163         2.138495
 C        -0.701410         1.307728         0.534555
 O        -0.183859         0.049342         0.091475
 C        -0.207511         2.496598        -0.292908
 C        -1.031940         3.702788         0.252698
 C        -2.354881         3.039683         0.868307
 C        -2.251128         1.466059         0.588960
 H        -2.897318         0.921982         3.359432
 H        -0.038534         2.229225         2.596716
 H        -0.746351         0.448392         2.454584
 H        -0.777532        -0.299055        -0.615711
 H         0.900130         2.568187        -0.255774
 H        -0.508729         2.304916        -1.370936
 H        -0.349093         4.105856         0.994841
 H        -1.373303         4.387768        -0.546644
 H        -3.321450         3.571447         0.891135
 H        -3.019306         1.043993         0.001422
