19
Iteration:  4604
 O        -3.147964         1.794549         2.949989
 C        -2.134320         1.970697         2.029985
 C        -0.694577         1.470425         2.100247
 C        -0.781306         1.212954         0.513977
 O        -0.253935         0.028091         0.056146
 C        -0.173281         2.508195        -0.244079
 C        -1.075208         3.672820         0.291070
 C        -2.290779         3.014922         0.934181
 C        -2.278900         1.560742         0.554485
 H        -3.578642         0.918373         2.820461
 H         0.207162         2.005692         2.438334
 H        -0.627804         0.585762         2.673157
 H         0.670486         0.270589         0.004714
 H         0.909175         2.664350        -0.073302
 H        -0.276615         2.344805        -1.264668
 H        -0.486777         4.140456         0.985682
 H        -1.396371         4.381540        -0.504942
 H        -3.401110         3.437595         1.069174
 H        -3.033716         1.038460        -0.039823
