19
Iteration:  4085
 O        -3.121500         1.583793         2.825869
 C        -2.145893         2.103028         1.919310
 C        -0.709143         1.513111         2.129127
 C        -0.771595         1.287486         0.474648
 O        -0.240151         0.083598         0.234877
 C        -0.217811         2.508543        -0.247279
 C        -0.969509         3.669847         0.391566
 C        -2.314047         3.085022         0.823408
 C        -2.296813         1.446606         0.559510
 H        -2.982835         1.761720         3.742261
 H         0.185923         2.096294         2.368079
 H        -0.626078         0.448135         2.633504
 H        -0.607487        -0.323019        -0.542538
 H         0.950079         2.472164        -0.156583
 H        -0.475243         2.434038        -1.276376
 H        -0.675615         4.081328         1.401285
 H        -1.085507         4.438106        -0.390879
 H        -3.231837         3.596289         0.782317
 H        -3.146927         0.829259         0.224894
