19
Iteration:  1194
 O        -3.066583         2.127956         3.002717
 C        -2.228932         1.887666         1.908614
 C        -0.746926         1.284693         2.134780
 C        -0.680127         1.289173         0.545688
 O        -0.166748         0.064508        -0.070031
 C        -0.211493         2.562836        -0.166939
 C        -1.081169         3.625510         0.395335
 C        -2.354590         2.941291         0.844776
 C        -2.271582         1.406430         0.496951
 H        -3.688456         1.300796         2.951106
 H         0.191459         1.851730         2.692873
 H        -0.818732         0.275431         2.486517
 H         0.031201        -0.524198         0.703452
 H         0.814636         2.560934         0.184357
 H        -0.365304         2.453531        -1.263310
 H        -0.545183         4.203469         1.215416
 H        -1.191002         4.332911        -0.438381
 H        -3.272644         3.521019         1.084155
 H        -3.100850         0.864850        -0.095315
