19
Iteration:   195
 O        -3.322739         1.915874         2.893737
 C        -2.215935         1.942479         1.974649
 C        -0.737576         1.485592         2.135220
 C        -0.664030         1.210179         0.602307
 O        -0.219426         0.079189         0.016010
 C        -0.221977         2.426103        -0.204030
 C        -0.995336         3.753103         0.323607
 C        -2.281215         2.882077         0.794370
 C        -2.201558         1.423613         0.618208
 H        -3.174607         1.515851         3.774325
 H         0.044460         2.224248         2.593382
 H        -0.417529         0.758983         2.828651
 H         0.697334         0.230538        -0.244359
 H         0.899914         2.519969        -0.150278
 H        -0.481050         2.285741        -1.308643
 H        -0.407790         4.378315         1.033757
 H        -0.975157         4.368182        -0.599699
 H        -3.287537         3.294486         0.891051
 H        -3.005403         0.901549         0.052456
