19
Iteration:  2687charge 0 multiplicity 1
 O        -2.865784         1.959889         3.049965
 C        -2.089555         1.991475         2.023740
 C        -0.744909         1.254675         2.057803
 C        -0.728580         1.248622         0.459735
 O        -0.317889        -0.038654         0.042743
 C        -0.135326         2.659816        -0.077924
 C        -1.182760         3.787089         0.260353
 C        -2.347576         2.932011         0.762539
 C        -2.351614         1.415436         0.592097
 H        -3.790326         1.701916         2.705977
 H         0.131704         1.688920         2.731575
 H        -0.951711         0.170324         2.292145
 H        -0.262485        -0.095984        -0.962760
 H         0.799282         2.739733         0.537986
 H         0.109576         2.645300        -1.163941
 H        -0.867774         4.381004         1.153974
 H        -1.628700         4.439318        -0.518247
 H        -3.255897         3.307709         1.075359
 H        -2.951219         0.693715         0.092272
