19
Iteration:   566charge 0 multiplicity 1
 O        -3.096314         1.800080         3.012282
 C        -2.225076         1.920573         1.924390
 C        -0.855056         1.388290         2.063723
 C        -0.745902         1.200814         0.450078
 O        -0.152827         0.027684         0.228150
 C        -0.083209         2.474708        -0.208162
 C        -1.006950         3.754446         0.343604
 C        -2.251694         3.041588         0.932613
 C        -2.330243         1.594877         0.444413
 H        -3.914060         1.479614         2.587044
 H         0.001354         1.773591         2.666968
 H        -1.174195         0.400247         2.412798
 H        -0.017819        -0.229543        -0.683661
 H         0.947320         2.632501         0.068415
 H        -0.236626         2.493494        -1.327652
 H        -0.493382         4.354109         1.069381
 H        -1.330095         4.338445        -0.550882
 H        -3.163059         3.633114         0.956954
 H        -3.227213         1.253249        -0.078389
