19
Iteration:  3758charge 0 multiplicity 1
 O        -3.045030         1.808026         3.038526
 C        -2.196641         1.945807         1.976746
 C        -0.730869         1.424724         1.998124
 C        -0.779415         1.246214         0.492220
 O        -0.092267         0.062471         0.110276
 C        -0.156063         2.534574        -0.095848
 C        -1.105753         3.713808         0.262407
 C        -2.354526         2.931354         0.875121
 C        -2.358890         1.471923         0.466559
 H        -3.078547         2.662966         3.428277
 H         0.072721         2.073131         2.351876
 H        -0.627930         0.317080         2.365536
 H        -0.829111        -0.542478         0.062509
 H         0.890662         2.754070         0.319905
 H        -0.099995         2.451701        -1.195619
 H        -0.453423         4.469987         0.809071
 H        -1.535083         4.218456        -0.643495
 H        -3.334954         3.425296         0.738168
 H        -3.194525         0.894024         0.045236
