19
Iteration:  2071charge 0 multiplicity 1
 O        -3.099071         1.734488         3.030256
 C        -2.128775         1.972389         1.956144
 C        -0.617744         1.476509         1.991685
 C        -0.754811         1.269856         0.486714
 O        -0.238347        -0.013872         0.177113
 C        -0.207934         2.474970        -0.202104
 C        -1.086894         3.716915         0.323567
 C        -2.367006         3.012854         0.815940
 C        -2.294740         1.510963         0.582753
 H        -3.281744         2.612574         3.390744
 H         0.157486         2.215026         2.432143
 H        -0.589892         0.402776         2.282866
 H        -0.142280        -0.157420        -0.808999
 H         0.855753         2.608152        -0.010953
 H        -0.275951         2.446222        -1.335277
 H        -0.703813         4.229929         1.242959
 H        -1.269498         4.457082        -0.452732
 H        -3.363133         3.447306         0.739148
 H        -3.072767         0.862989         0.117743
