19
Iteration:  3055charge 0 multiplicity 1
 O        -3.068496         1.965178         2.967657
 C        -2.116119         1.903263         2.032424
 C        -0.642686         1.270163         2.018156
 C        -0.773063         1.271947         0.474202
 O        -0.116083         0.061811         0.094749
 C        -0.207432         2.565579        -0.144761
 C        -1.242404         3.685217         0.302716
 C        -2.345222         2.948155         0.908477
 C        -2.330343         1.378386         0.558937
 H        -3.120325         2.866123         3.159582
 H         0.156986         1.804035         2.600908
 H        -0.720345         0.246749         2.306191
 H         0.082917         0.129673        -0.864899
 H         0.784542         2.763048         0.298582
 H        -0.195488         2.297692        -1.193055
 H        -0.614721         4.338032         0.933568
 H        -1.604283         4.245763        -0.577794
 H        -3.328233         3.533684         0.876685
 H        -3.177301         0.943100         0.029882
