19
Iteration:  4659
 O        -3.114721         1.927185         3.084851
 C        -2.253578         1.880820         1.907656
 C        -0.780915         1.504224         2.138206
 C        -0.664959         1.286328         0.542578
 O        -0.276653         0.037576         0.055485
 C        -0.153323         2.498552        -0.231452
 C        -1.072888         3.649161         0.421917
 C        -2.299641         2.910928         0.822229
 C        -2.198637         1.482511         0.424598
 H        -2.932206         1.001940         3.521446
 H        -0.089923         2.142419         2.730578
 H        -0.659777         0.487725         2.453785
 H         0.190209         0.171772        -0.770073
 H         0.960114         2.824836        -0.241409
 H        -0.514725         2.411169        -1.233032
 H        -0.574375         4.046098         1.226865
 H        -1.330003         4.445921        -0.318627
 H        -3.340412         3.410342         0.647517
 H        -2.942982         0.951612        -0.201808
