19
Iteration:  4218charge 0 multiplicity 1
 O        -3.102925         1.853165         3.097355
 C        -2.162940         1.931835         1.943788
 C        -0.738924         1.438955         1.992189
 C        -0.731036         1.240235         0.415289
 O        -0.245126         0.030729        -0.010099
 C        -0.154011         2.528698        -0.091886
 C        -1.109150         3.692954         0.378725
 C        -2.274865         2.965397         0.865219
 C        -2.296291         1.398580         0.536438
 H        -3.804841         2.430523         2.874582
 H        -0.084411         2.179677         2.366328
 H        -0.768002         0.420746         2.523151
 H         0.709665         0.035318         0.088947
 H         0.876719         2.693019         0.428213
 H        -0.054764         2.512895        -1.182781
 H        -0.693767         4.242542         1.264460
 H        -1.367380         4.304215        -0.515536
 H        -3.252619         3.460260         0.888362
 H        -2.966670         1.087374        -0.245117
