19
Iteration:  1180
 O        -3.076783         2.063575         3.026785
 C        -2.156587         1.923389         1.961589
 C        -0.808041         1.411846         1.983056
 C        -0.715828         1.183577         0.444613
 O        -0.170824        -0.003324         0.002915
 C        -0.096148         2.546503        -0.141195
 C        -1.096103         3.669879         0.442382
 C        -2.323501         2.901696         0.873154
 C        -2.327325         1.486943         0.452320
 H        -3.615517         1.336731         3.234602
 H        -0.108706         2.050009         2.560903
 H        -0.795640         0.413274         2.503352
 H         0.007802        -0.581698         0.775572
 H         0.938937         2.930855        -0.033410
 H        -0.202675         2.463312        -1.230763
 H        -0.730122         4.175992         1.376274
 H        -1.487891         4.467220        -0.256443
 H        -3.320367         3.337098         0.800380
 H        -3.015215         0.842115        -0.042129
