19
Iteration:  3982charge 0 multiplicity 1
 O        -3.099437         1.966131         3.128741
 C        -2.245093         1.944973         1.978430
 C        -0.749330         1.357854         2.018530
 C        -0.770880         1.218744         0.464333
 O        -0.169537         0.074566        -0.121225
 C        -0.046853         2.527536         0.094367
 C        -1.120959         3.644351         0.278681
 C        -2.368595         2.883284         0.781602
 C        -2.312216         1.403303         0.549864
 H        -3.359189         2.903365         3.371824
 H        -0.014142         1.983479         2.481155
 H        -0.684039         0.444819         2.453032
 H         0.673092         0.362585        -0.544612
 H         0.814454         2.621728         0.708870
 H         0.356169         2.476904        -0.920411
 H        -0.784201         4.397416         1.018942
 H        -1.508773         4.072843        -0.686248
 H        -3.401113         3.304604         0.581029
 H        -3.005374         0.890950        -0.209205
