19
Iteration:  2776charge 0 multiplicity 1
 O        -3.084409         1.750384         2.932694
 C        -2.088112         1.959768         1.938468
 C        -0.655386         1.467818         2.064999
 C        -0.671702         1.280424         0.541240
 O        -0.323832         0.006666         0.044698
 C        -0.288708         2.566960        -0.294624
 C        -1.076267         3.716621         0.407259
 C        -2.334656         2.992704         0.924615
 C        -2.238795         1.472161         0.548511
 H        -2.750369         2.186651         3.786918
 H         0.168531         2.175081         2.411364
 H        -0.583255         0.456696         2.596058
 H        -0.854426        -0.621322         0.592057
 H         0.792686         2.802384        -0.254842
 H        -0.583811         2.433194        -1.347083
 H        -0.467185         4.008516         1.264676
 H        -1.282154         4.477500        -0.364648
 H        -3.302103         3.451004         0.578124
 H        -2.942119         0.914466        -0.108956
