19
Iteration:  3958charge 0 multiplicity 1
 O        -3.082561         1.868903         3.051309
 C        -2.170698         1.848624         1.935191
 C        -0.838032         1.346089         2.168366
 C        -0.677006         1.307096         0.546768
 O        -0.309843         0.096873        -0.005526
 C        -0.056881         2.573494        -0.057642
 C        -1.128738         3.676493         0.214566
 C        -2.311343         2.885473         0.855182
 C        -2.245184         1.480316         0.425533
 H        -3.148921         2.830483         3.405127
 H        -0.257688         1.872554         2.903887
 H        -0.764382         0.320137         2.565778
 H         0.615615         0.069180        -0.368419
 H         0.937565         2.888962         0.221346
 H        -0.020416         2.301990        -1.150844
 H        -0.672572         4.406616         0.914374
 H        -1.611207         4.156456        -0.703073
 H        -3.276788         3.348156         0.896441
 H        -2.971972         0.814485        -0.110067
