19
Iteration:  4120charge 0 multiplicity 1
 O        -3.235061         1.736332         3.012689
 C        -2.222163         1.829383         1.950490
 C        -0.687738         1.442320         2.091984
 C        -0.679597         1.319353         0.489137
 O        -0.264676         0.041939         0.135589
 C        -0.144216         2.562738        -0.185340
 C        -1.050078         3.722229         0.307255
 C        -2.274651         2.958531         0.926210
 C        -2.164120         1.480134         0.431717
 H        -3.081694         2.481719         3.612367
 H         0.008317         2.316948         2.403830
 H        -0.561514         0.489878         2.816310
 H        -0.768759        -0.311296        -0.585970
 H         0.970732         2.557956        -0.068097
 H        -0.418361         2.540700        -1.270087
 H        -0.527823         4.535564         0.883922
 H        -1.448309         4.336941        -0.521421
 H        -3.185952         3.577626         0.918342
 H        -2.900281         1.110607        -0.329877
