19
Iteration:  2781
 O        -3.080608         1.766745         2.922969
 C        -2.072632         1.920944         1.986265
 C        -0.673064         1.441983         2.080368
 C        -0.688420         1.337595         0.569099
 O        -0.346699        -0.008563         0.054037
 C        -0.272166         2.583290        -0.341224
 C        -1.080241         3.717194         0.418068
 C        -2.307224         3.003872         0.911892
 C        -2.241000         1.433113         0.497185
 H        -2.633298         2.034787         3.734855
 H        -0.031298         2.168058         2.526673
 H        -0.593163         0.489263         2.534952
 H        -0.736188        -0.598387         0.731236
 H         0.789609         2.836819        -0.325617
 H        -0.604112         2.534060        -1.387691
 H        -0.468461         4.268785         1.197858
 H        -1.261082         4.459796        -0.373619
 H        -3.254052         3.454746         0.704900
 H        -2.934475         0.838318        -0.078717
