19
Iteration:  2945charge 0 multiplicity 1
 O        -3.125325         1.777655         3.036666
 C        -2.186829         1.888757         1.983561
 C        -0.709892         1.557587         2.125247
 C        -0.693074         1.302539         0.560889
 O        -0.212747         0.004091         0.108584
 C        -0.197881         2.538229        -0.347629
 C        -1.043784         3.718660         0.289073
 C        -2.335003         3.005140         0.905208
 C        -2.236450         1.463590         0.553741
 H        -3.184584         0.807517         3.372415
 H        -0.040998         2.256426         2.645836
 H        -0.721337         0.516852         2.451018
 H        -0.859836        -0.169720        -0.578949
 H         0.881486         2.709145        -0.363620
 H        -0.451267         2.390057        -1.385572
 H        -0.396973         4.345652         0.958898
 H        -1.214844         4.304229        -0.631386
 H        -3.278185         3.533494         0.778437
 H        -3.064191         0.983472        -0.038411
