19
Iteration:  3140
 O        -3.100357         1.634591         2.865346
 C        -2.095002         1.963303         1.982331
 C        -0.685334         1.469924         2.004273
 C        -0.786231         1.293013         0.438566
 O        -0.159635        -0.053022         0.331158
 C        -0.251615         2.523259        -0.320019
 C        -1.081863         3.711385         0.246991
 C        -2.295141         3.065702         0.986208
 C        -2.331201         1.587930         0.611841
 H        -3.100772         2.287035         3.674116
 H         0.136903         2.081473         2.472420
 H        -0.968824         0.591684         2.594735
 H        -0.277212        -0.431059        -0.542928
 H         0.790692         2.816588        -0.065173
 H        -0.260253         2.334218        -1.464366
 H        -0.442932         4.423735         0.761323
 H        -1.578805         4.300602        -0.544332
 H        -3.197011         3.690093         0.735825
 H        -3.200577         1.091815         0.202207
