19
Iteration:  4513charge 0 multiplicity 1
 O        -3.159108         2.003281         3.089576
 C        -2.172016         1.874120         1.977014
 C        -0.794547         1.345479         2.104718
 C        -0.708076         1.280733         0.529273
 O        -0.180725         0.116028        -0.055172
 C        -0.220564         2.510120        -0.168440
 C        -1.051968         3.653644         0.286612
 C        -2.309667         2.924173         0.875751
 C        -2.260147         1.466187         0.497416
 H        -3.403429         1.155065         3.405158
 H        -0.008643         1.689603         2.776773
 H        -0.903808         0.223973         2.348311
 H         0.803809         0.021194        -0.130920
 H         0.822358         2.883678         0.216431
 H        -0.149189         2.467226        -1.299131
 H        -0.504923         4.279760         1.038488
 H        -1.358868         4.255355        -0.566340
 H        -3.241291         3.375892         0.914117
 H        -2.999485         0.972429        -0.119047
