19
Iteration:   920charge 0 multiplicity 1
 O        -3.100120         1.889658         3.058283
 C        -2.222365         1.910873         1.885423
 C        -0.762457         1.456084         2.073147
 C        -0.739114         1.282092         0.487191
 O        -0.271086        -0.036721         0.205296
 C        -0.142374         2.531571        -0.211541
 C        -1.006251         3.689588         0.367210
 C        -2.344408         2.982163         0.856524
 C        -2.284103         1.518954         0.388687
 H        -2.938856         0.977593         3.427717
 H         0.139640         2.017785         2.418601
 H        -0.850445         0.500357         2.548596
 H         0.328591         0.217595        -0.510626
 H         0.978006         2.672015        -0.075477
 H        -0.233842         2.330793        -1.347930
 H        -0.490196         3.992455         1.318162
 H        -1.316958         4.451713        -0.346597
 H        -3.251810         3.589436         0.838523
 H        -2.999241         1.026810        -0.277942
