19
Iteration:  2157charge 0 multiplicity 1
 O        -3.130179         2.041552         2.947802
 C        -2.045193         1.984368         2.041157
 C        -0.657127         1.287022         2.054228
 C        -0.701071         1.216572         0.562501
 O        -0.267874         0.066815        -0.170353
 C        -0.198782         2.540145        -0.060518
 C        -1.178025         3.624229         0.218691
 C        -2.313284         2.977057         0.952074
 C        -2.280840         1.490612         0.583749
 H        -3.116877         1.256030         3.495528
 H         0.178978         1.821249         2.483642
 H        -0.641556         0.286616         2.522668
 H         0.075418        -0.588795         0.499459
 H         0.714302         2.949406         0.327030
 H        -0.132408         2.397695        -1.154598
 H        -0.814820         4.394685         0.941128
 H        -1.591373         4.076414        -0.697926
 H        -3.344724         3.303978         1.048986
 H        -3.046242         0.819512         0.223104
