19
Iteration:   715charge 0 multiplicity 1
 O        -3.045351         1.884145         2.985512
 C        -2.156368         1.947370         1.956382
 C        -0.776559         1.431147         2.095245
 C        -0.836844         1.286746         0.545557
 O        -0.236643         0.030913         0.045114
 C        -0.097414         2.453747        -0.041694
 C        -1.045103         3.650722         0.415596
 C        -2.306050         3.003123         0.807607
 C        -2.346252         1.503031         0.403559
 H        -3.916425         1.555423         2.615517
 H        -0.000537         2.039959         2.507958
 H        -0.696033         0.385700         2.488330
 H         0.318247         0.309154        -0.682732
 H         0.932402         2.481363         0.350050
 H         0.018590         2.283151        -1.083631
 H        -0.475774         4.138848         1.217827
 H        -1.074329         4.364279        -0.455870
 H        -3.272737         3.441004         0.782611
 H        -3.127716         0.928854        -0.048480
