19
Iteration:  2786charge 0 multiplicity 1
 O        -3.072205         1.780680         2.929054
 C        -2.120421         1.872496         2.001427
 C        -0.686604         1.442665         2.101395
 C        -0.727210         1.371594         0.520654
 O        -0.361149        -0.010749         0.072178
 C        -0.238400         2.601846        -0.351170
 C        -1.061172         3.718450         0.402191
 C        -2.262118         2.980470         0.881835
 C        -2.224396         1.443427         0.480622
 H        -2.609546         1.888508         3.797456
 H        -0.078162         2.180782         2.751144
 H        -0.582900         0.388626         2.537586
 H        -0.572308        -0.588112         0.819383
 H         0.856967         2.816927        -0.422668
 H        -0.666160         2.531600        -1.373616
 H        -0.565093         4.450564         1.044666
 H        -1.346352         4.493504        -0.328795
 H        -3.290379         3.458229         1.077237
 H        -2.948552         0.763032        -0.012824
