19
Iteration:  2632charge 0 multiplicity 1
 O        -3.078260         1.848068         3.127560
 C        -2.208674         1.916714         2.063773
 C        -0.747876         1.452613         2.159310
 C        -0.756697         1.236764         0.485346
 O        -0.289045         0.036197        -0.017570
 C        -0.202098         2.496258        -0.327936
 C        -1.009368         3.710129         0.189144
 C        -2.209691         3.020549         0.914083
 C        -2.306393         1.481636         0.586579
 H        -3.695471         1.064186         3.019248
 H        -0.033485         2.134743         2.779308
 H        -0.542053         0.471057         2.620867
 H         0.604673         0.021173        -0.422977
 H         0.909603         2.650464        -0.232360
 H        -0.408965         2.538830        -1.415206
 H        -0.424810         4.224026         0.999509
 H        -1.470436         4.430178        -0.528114
 H        -3.170993         3.409957         0.801347
 H        -3.183332         1.009861         0.144240
