19
Iteration:   678charge 0 multiplicity 1
 O        -3.141960         1.873752         3.085155
 C        -2.206927         2.011321         1.981628
 C        -0.853880         1.280493         2.062772
 C        -0.718729         1.284937         0.492502
 O        -0.190181        -0.030880         0.124904
 C         0.022815         2.497926        -0.075291
 C        -1.057423         3.733274         0.255511
 C        -2.304831         2.983940         0.893616
 C        -2.302328         1.632729         0.346083
 H        -3.334292         0.899432         3.263651
 H        -0.078719         1.709536         2.800208
 H        -0.784204         0.234593         2.050762
 H        -0.593221        -0.124125        -0.758951
 H         0.903026         2.901961         0.417094
 H         0.188460         2.436345        -1.181744
 H        -0.679875         4.516412         0.973966
 H        -1.463168         4.268003        -0.581189
 H        -3.349400         3.394873         0.838836
 H        -3.014354         1.064226        -0.292971
