19
Iteration:    60
 O        -3.165471         1.946059         2.914785
 C        -2.171896         1.979550         1.976143
 C        -0.766930         1.506871         2.146495
 C        -0.659369         1.280789         0.513250
 O        -0.122513         0.057527         0.142925
 C        -0.202408         2.539332        -0.296942
 C        -1.116780         3.626740         0.298944
 C        -2.365771         2.864020         0.834810
 C        -2.212595         1.433023         0.494682
 H        -3.187205         1.072629         3.418457
 H         0.038354         2.179749         2.789539
 H        -0.873670         0.519943         2.681777
 H        -0.322053        -0.643994         0.789626
 H         0.844293         2.760718        -0.131256
 H        -0.234544         2.450706        -1.348743
 H        -0.591514         4.296130         1.029397
 H        -1.419176         4.320643        -0.527028
 H        -3.327433         3.347039         1.053576
 H        -2.946594         0.761849         0.066753
