19
Iteration:  2615charge 0 multiplicity 1
 O        -3.110480         1.872174         2.989497
 C        -2.062462         1.977620         2.025986
 C        -0.631357         1.392410         2.027252
 C        -0.717451         1.331430         0.514134
 O        -0.368045        -0.019176         0.092232
 C        -0.287396         2.529585        -0.331864
 C        -1.048544         3.706681         0.346377
 C        -2.327263         3.003306         0.887485
 C        -2.241295         1.515061         0.606783
 H        -3.298986         0.874267         2.911397
 H         0.247441         1.823275         2.426139
 H        -0.775766         0.354461         2.374956
 H         0.618868         0.071931         0.200831
 H         0.793220         2.603695        -0.361263
 H        -0.634264         2.095965        -1.269011
 H        -0.511020         4.203869         1.147004
 H        -1.318531         4.373456        -0.479809
 H        -3.323102         3.504648         1.083678
 H        -2.937556         0.859913         0.110793
