19
Iteration:   607charge 0 multiplicity 1
 O        -3.179152         1.945044         2.999920
 C        -2.258476         1.957281         1.898105
 C        -0.797063         1.468190         2.046312
 C        -0.715686         1.276989         0.499997
 O        -0.207982        -0.019688         0.078116
 C        -0.121784         2.525261        -0.166110
 C        -0.964511         3.696539         0.513422
 C        -2.254322         2.919970         0.817690
 C        -2.277888         1.448329         0.475440
 H        -3.307318         1.027760         3.397627
 H        -0.045488         2.021114         2.555994
 H        -0.863325         0.377102         2.425817
 H        -0.219292         0.183648        -0.882782
 H         0.992881         2.413282         0.001112
 H        -0.304797         2.322614        -1.264244
 H        -0.459206         4.135644         1.388343
 H        -1.118044         4.626166        -0.114351
 H        -3.237867         3.365649         0.703400
 H        -3.146601         1.092631        -0.111283
