19
Iteration:  4325
 O        -3.131306         1.845012         3.043384
 C        -2.158107         1.970132         1.936239
 C        -0.806831         1.413267         2.103949
 C        -0.703378         1.274875         0.585854
 O        -0.290456         0.046176        -0.010254
 C        -0.148537         2.579425        -0.129229
 C        -1.026043         3.697335         0.334813
 C        -2.344848         2.901599         0.698508
 C        -2.266231         1.459640         0.557030
 H        -2.700011         1.310371         3.670123
 H         0.044188         1.919458         2.595816
 H        -0.849420         0.325061         2.477716
 H         0.635328         0.205594        -0.276468
 H         0.983403         2.613699         0.033230
 H        -0.224520         2.510817        -1.177329
 H        -0.742381         4.452366         1.126458
 H        -1.357556         4.398559        -0.422563
 H        -3.266697         3.509965         0.747545
 H        -2.916183         0.817794         0.010396
