19
Iteration:  3461
 O        -3.052005         1.847478         3.017526
 C        -2.152289         2.033618         1.990775
 C        -0.753005         1.328975         2.035473
 C        -0.859063         1.229295         0.448290
 O        -0.034287         0.079404         0.053017
 C        -0.124465         2.514616        -0.055659
 C        -1.157199         3.629911         0.227128
 C        -2.403251         2.957293         0.831243
 C        -2.313790         1.496732         0.622594
 H        -3.151597         2.711630         3.496129
 H         0.202521         1.807025         2.310489
 H        -0.891674         0.433070         2.717563
 H        -0.345981        -0.062110        -0.877965
 H         0.953107         2.533298         0.386005
 H         0.035271         2.581800        -1.175402
 H        -0.736671         4.442850         0.851545
 H        -1.494250         3.929023        -0.751465
 H        -3.438512         3.400478         0.736654
 H        -3.167967         0.981178         0.346386
