19
Iteration:  1667charge 0 multiplicity 1
 O        -3.162662         1.770045         2.950744
 C        -2.172012         2.060019         1.985058
 C        -0.733895         1.514734         2.112056
 C        -0.701201         1.189450         0.550393
 O        -0.159892        -0.029534         0.116441
 C        -0.299711         2.459331        -0.315133
 C        -0.958084         3.596044         0.328774
 C        -2.322097         3.085094         0.940455
 C        -2.335780         1.616829         0.520156
 H        -3.691407         0.962964         2.725285
 H         0.132491         2.135771         2.626751
 H        -0.746222         0.520156         2.461212
 H         0.786531         0.079004         0.118741
 H         0.765340         2.744270        -0.306427
 H        -0.618060         2.506608        -1.417262
 H        -0.409065         4.001133         1.232301
 H        -1.021176         4.331585        -0.481348
 H        -3.296950         3.588742         0.818977
 H        -3.050205         0.901379         0.053895
