19
Iteration:   648charge 0 multiplicity 1
 O        -3.220899         1.957115         2.802387
 C        -2.152872         1.886512         1.998302
 C        -0.739801         1.371192         2.131460
 C        -0.721585         1.266841         0.618775
 O        -0.256857         0.061896        -0.044099
 C        -0.085753         2.487092        -0.038333
 C        -1.017396         3.733927         0.325596
 C        -2.229921         2.933331         0.917335
 C        -2.315002         1.436689         0.523217
 H        -2.896495         1.427183         3.508386
 H        -0.108317         2.069338         2.710877
 H        -0.521371         0.286817         2.440233
 H        -0.824396        -0.049170        -0.846682
 H         0.962371         2.788541         0.217292
 H        -0.060828         2.406949        -1.081257
 H        -0.614427         4.516827         1.059114
 H        -1.374804         4.441463        -0.447011
 H        -3.200198         3.437769         0.949854
 H        -3.150217         0.862126        -0.000815
