19
Iteration:  4827charge 0 multiplicity 1
 O        -3.142998         1.883892         3.004996
 C        -2.237332         1.928364         1.936967
 C        -0.800794         1.452335         2.086817
 C        -0.663267         1.287052         0.516809
 O        -0.105323         0.086792         0.084747
 C        -0.242983         2.490604        -0.279390
 C        -0.980299         3.721126         0.460292
 C        -2.307690         2.976696         0.862243
 C        -2.308945         1.422843         0.483708
 H        -3.091431         1.057381         3.540910
 H        -0.056207         1.935854         2.667960
 H        -0.987705         0.384554         2.407632
 H        -0.568746        -0.308974        -0.662905
 H         0.843723         2.618594        -0.385282
 H        -0.717822         2.376184        -1.287970
 H        -0.430434         4.158719         1.320403
 H        -1.113720         4.574214        -0.264089
 H        -3.272536         3.448621         1.031096
 H        -2.711351         0.762279        -0.246493
