19
Iteration:  3382
 O        -3.052167         1.840034         3.044242
 C        -2.173494         1.999205         1.988751
 C        -0.697249         1.448861         2.084335
 C        -0.800259         1.228163         0.438039
 O        -0.104719        -0.014403         0.028655
 C        -0.162731         2.489902        -0.151933
 C        -1.071588         3.695934         0.279144
 C        -2.380739         2.961462         0.860315
 C        -2.414782         1.404556         0.657764
 H        -3.846242         2.386873         2.922074
 H         0.084428         2.178751         2.456292
 H        -0.689139         0.504268         2.527289
 H         0.339873         0.344215        -0.778614
 H         0.849208         2.855444         0.155641
 H        -0.115515         2.459808        -1.257146
 H        -0.554713         4.389082         1.010784
 H        -1.290897         4.378174        -0.587373
 H        -3.181354         3.640427         0.678908
 H        -3.252273         0.779838         0.200634
