19
Iteration:   313charge 0 multiplicity 1
 O        -3.173139         2.023286         2.912806
 C        -2.142261         1.903454         1.997209
 C        -0.788836         1.386956         2.213351
 C        -0.762877         1.193661         0.588993
 O        -0.126878         0.098897        -0.126951
 C        -0.086754         2.539756        -0.126405
 C        -1.065566         3.692544         0.324184
 C        -2.324905         2.926677         0.890360
 C        -2.295589         1.399622         0.526452
 H        -3.962129         2.066899         2.401516
 H         0.159558         1.856302         2.591562
 H        -0.836722         0.323428         2.764085
 H        -0.150943        -0.750716         0.406329
 H         0.960296         2.816065         0.114169
 H        -0.101568         2.374577        -1.201940
 H        -0.674121         4.077674         1.326182
 H        -1.467877         4.461711        -0.492700
 H        -3.206487         3.573325         0.859358
 H        -2.893650         0.619736         0.045140
