19
Iteration:  3071
 O        -3.116120         1.926829         2.930245
 C        -2.074528         2.017052         1.912694
 C        -0.588705         1.390642         2.014479
 C        -0.691943         1.163570         0.513121
 O        -0.173041        -0.056744         0.009033
 C        -0.229415         2.567101        -0.046418
 C        -1.198387         3.717464         0.344290
 C        -2.451063         2.965176         0.852435
 C        -2.292539         1.426753         0.621717
 H        -3.052141         2.707444         3.513436
 H         0.323019         1.894396         2.274500
 H        -0.641957         0.445947         2.637179
 H        -0.124732        -0.060358        -0.938776
 H         0.773935         2.698875         0.384871
 H        -0.275913         2.658288        -1.164273
 H        -0.887625         4.406034         1.154049
 H        -1.351200         4.395470        -0.509483
 H        -3.436674         3.294669         0.956830
 H        -2.960188         0.536034         0.474999
