19
Iteration:   638charge 0 multiplicity 1
 O        -3.290756         1.960084         2.834421
 C        -2.111064         1.921434         1.966107
 C        -0.650617         1.436924         2.177287
 C        -0.704263         1.239594         0.545999
 O        -0.235170         0.034882        -0.081723
 C        -0.083308         2.482519        -0.077601
 C        -1.056414         3.733041         0.411931
 C        -2.315507         2.901200         0.847320
 C        -2.282858         1.494115         0.519600
 H        -3.147911         1.475320         3.638299
 H         0.102768         2.068527         2.643928
 H        -0.694690         0.406002         2.733307
 H        -0.718685         0.030441        -0.925943
 H         0.947411         2.333138         0.360605
 H        -0.029464         2.262255        -1.115375
 H        -0.556234         4.106012         1.323790
 H        -1.214806         4.411628        -0.455327
 H        -3.200013         3.470700         1.070801
 H        -3.207112         0.894391         0.345988
