19
Iteration:  3015charge 0 multiplicity 1
 O        -2.959257         1.732549         3.201868
 C        -2.267751         2.002728         1.966774
 C        -0.808095         1.458935         2.093611
 C        -0.723610         1.281680         0.558385
 O        -0.085707         0.055046         0.044505
 C        -0.232067         2.448793        -0.180230
 C        -1.058483         3.697761         0.187707
 C        -2.373272         2.993873         0.802052
 C        -2.319576         1.504798         0.543024
 H        -3.821047         2.288440         3.343810
 H        -0.016775         1.995690         2.608980
 H        -1.011289         0.428970         2.434265
 H        -0.089959         0.066417        -0.931423
 H         0.855657         2.570728        -0.000134
 H        -0.199832         2.268460        -1.278954
 H        -0.516223         4.262325         1.004328
 H        -1.435033         4.368536        -0.604716
 H        -3.403793         3.235354         0.497558
 H        -2.817626         1.123380        -0.293298
