19
Iteration:   108
 O        -3.148031         1.794593         2.986002
 C        -2.204460         1.964362         2.007029
 C        -0.767214         1.518635         2.166107
 C        -0.680576         1.312628         0.540676
 O        -0.113119         0.112126        -0.000007
 C        -0.052594         2.493220        -0.123243
 C        -1.145249         3.568827         0.147837
 C        -2.352638         2.980183         0.812794
 C        -2.306513         1.405615         0.645796
 H        -3.591847         2.613311         3.152603
 H         0.068917         2.260464         2.668791
 H        -0.698436         0.510160         2.653260
 H        -0.730566        -0.627701        -0.070791
 H         0.959835         2.804151         0.259696
 H         0.248574         2.283909        -1.215556
 H        -0.719232         4.348784         0.778942
 H        -1.411680         4.117930        -0.756704
 H        -3.325015         3.385546         0.569415
 H        -3.085228         0.749829         0.184692
