19
Iteration:  1213charge 0 multiplicity 1
 O        -3.159880         2.062982         2.977037
 C        -2.099843         1.949799         2.069028
 C        -0.803085         1.246108         2.123380
 C        -0.732927         1.254037         0.594388
 O        -0.155234         0.215600        -0.127318
 C        -0.169651         2.422705        -0.119285
 C        -1.082875         3.705216         0.308541
 C        -2.270593         2.886388         0.791502
 C        -2.277078         1.446734         0.546593
 H        -3.589847         1.225604         3.326061
 H        -0.090634         1.889484         2.547768
 H        -0.991031         0.295790         2.682058
 H        -0.068176        -0.665571         0.341166
 H         0.936685         2.516522        -0.087352
 H        -0.390092         2.145447        -1.156208
 H        -0.471943         4.308898         0.995171
 H        -1.382330         4.424044        -0.513701
 H        -3.156956         3.488760         0.719125
 H        -3.095950         0.876580         0.137439
