19
Iteration:  1887
 O        -3.137021         1.864803         2.960486
 C        -2.115458         1.901257         1.962329
 C        -0.702520         1.442153         2.084816
 C        -0.735911         1.302536         0.470696
 O        -0.257850        -0.024024         0.183093
 C        -0.208347         2.566906        -0.217240
 C        -1.046362         3.659826         0.314880
 C        -2.314928         2.976527         0.847606
 C        -2.303187         1.524188         0.559849
 H        -2.923065         1.011954         3.487440
 H         0.047979         2.075146         2.720903
 H        -0.561298         0.417809         2.390132
 H        -0.058925        -0.076844        -0.772549
 H         0.877419         2.573379        -0.010067
 H        -0.362193         2.605287        -1.324442
 H        -0.460503         4.311456         0.999460
 H        -1.363559         4.319715        -0.495801
 H        -3.215856         3.584505         0.860905
 H        -3.125551         1.122495        -0.058909
