19
Iteration:    86charge 0 multiplicity 1
 O        -3.320871         1.865672         2.874830
 C        -2.154576         1.962823         2.041840
 C        -0.606116         1.497361         2.162352
 C        -0.678953         1.238894         0.626696
 O        -0.138220         0.117963         0.013658
 C        -0.202060         2.462851        -0.108716
 C        -1.152986         3.723310         0.155667
 C        -2.259621         2.896300         0.841138
 C        -2.224636         1.405905         0.549642
 H        -3.139066         2.186867         3.816069
 H         0.227892         2.267162         2.509558
 H        -0.497399         0.551788         2.733298
 H        -0.684820        -0.685171         0.123232
 H         0.914512         2.654193        -0.025780
 H        -0.206737         2.167124        -1.230353
 H        -0.733324         4.542534         0.735640
 H        -1.491021         4.183836        -0.780368
 H        -3.271878         3.262562         0.899115
 H        -3.005103         0.762192         0.138228
