19
Iteration:  2035charge 0 multiplicity 1
 O        -3.248770         1.820783         2.935500
 C        -2.162265         1.872472         2.003210
 C        -0.680888         1.558392         2.175680
 C        -0.733599         1.279539         0.500178
 O        -0.144739         0.033712         0.045717
 C        -0.318490         2.509206        -0.369782
 C        -1.024728         3.707689         0.299061
 C        -2.209136         2.979495         0.893834
 C        -2.209534         1.438435         0.632178
 H        -2.755325         1.843330         3.751319
 H        -0.342882         2.216172         2.976229
 H        -0.368989         0.520493         2.603403
 H        -0.941326        -0.539035        -0.195210
 H         0.798485         2.481567        -0.402886
 H        -0.711996         2.164026        -1.333619
 H        -0.290519         4.187163         1.015072
 H        -1.389102         4.612880        -0.283252
 H        -3.158723         3.520893         0.879774
 H        -3.056267         1.055313         0.035741
