19
Iteration:  2723
 O        -2.993128         1.897902         3.192122
 C        -2.149619         1.904455         1.982050
 C        -0.799848         1.372900         2.087528
 C        -0.780863         1.265794         0.526513
 O        -0.157577         0.078082        -0.053786
 C        -0.168324         2.494296        -0.178272
 C        -1.112746         3.684354         0.257086
 C        -2.279329         2.937202         0.938553
 C        -2.308569         1.499055         0.501042
 H        -3.928501         2.127659         2.922590
 H        -0.040268         1.968730         2.593935
 H        -0.654319         0.287304         2.389777
 H        -0.819617        -0.290007        -0.693701
 H         0.873859         2.539551         0.144018
 H        -0.122741         2.319604        -1.257886
 H        -0.677452         4.485157         0.910237
 H        -1.435231         4.186055        -0.728836
 H        -3.255134         3.544388         0.924673
 H        -2.905342         1.196250        -0.415582
