19
Iteration:  3755
 O        -3.060774         1.801193         3.045049
 C        -2.188982         1.927056         1.965764
 C        -0.729261         1.443574         1.987600
 C        -0.765524         1.264612         0.515534
 O        -0.098112         0.062478         0.114669
 C        -0.146099         2.531268        -0.131646
 C        -1.095169         3.707025         0.275316
 C        -2.349139         2.955566         0.885178
 C        -2.367349         1.450665         0.479144
 H        -3.081129         2.684335         3.458451
 H        -0.022030         2.143308         2.341326
 H        -0.713013         0.396391         2.297289
 H        -0.812839        -0.603660        -0.032302
 H         0.887827         2.665259         0.271770
 H        -0.087860         2.464911        -1.239311
 H        -0.521246         4.452867         0.833603
 H        -1.547814         4.175206        -0.585331
 H        -3.271525         3.408743         0.716925
 H        -3.162084         0.909846         0.027154
