19
Iteration:  2439charge 0 multiplicity 1
 O        -3.005406         1.811316         3.018833
 C        -2.103378         1.921328         1.979312
 C        -0.712941         1.453783         1.965270
 C        -0.756617         1.339371         0.414239
 O        -0.284859        -0.043838         0.282452
 C        -0.138498         2.528071        -0.294165
 C        -1.114853         3.736410         0.316079
 C        -2.371278         2.995894         0.876241
 C        -2.311917         1.550373         0.559304
 H        -2.859091         0.867441         3.348046
 H         0.063778         2.091321         2.454997
 H        -0.602270         0.411133         2.489953
 H        -0.641281        -0.401796        -0.578571
 H         0.964815         2.714150        -0.099776
 H        -0.412278         2.500890        -1.352396
 H        -0.433799         4.243066         0.969750
 H        -1.455446         4.482668        -0.413954
 H        -3.356217         3.508144         0.889152
 H        -3.087916         0.882121         0.049086
