19
Iteration:  1753
 O        -2.939581         2.021957         3.042126
 C        -2.177912         1.925409         1.916410
 C        -0.805691         1.374047         2.018512
 C        -0.743245         1.214269         0.531712
 O        -0.207028         0.086385        -0.010587
 C        -0.092564         2.479550         0.035934
 C        -1.189689         3.681429         0.269369
 C        -2.373383         2.928143         0.688330
 C        -2.409414         1.442398         0.502986
 H        -2.858057         1.103592         3.487347
 H         0.001776         1.947831         2.586226
 H        -1.014386         0.446090         2.504461
 H         0.629805        -0.212111         0.432471
 H         0.719029         2.715068         0.711293
 H         0.315861         2.676712        -0.967955
 H        -0.969043         4.251110         1.184863
 H        -1.191628         4.423261        -0.516611
 H        -3.277955         3.564156         0.843480
 H        -3.090095         0.692308         0.021135
