19
Iteration:  4731
 O        -3.117656         1.953046         3.069689
 C        -2.165844         1.894401         1.987707
 C        -0.777427         1.242157         2.166959
 C        -0.666509         1.312044         0.582215
 O        -0.211773         0.140050        -0.014247
 C        -0.109023         2.588264        -0.105396
 C        -1.156913         3.661663         0.134859
 C        -2.240031         2.888837         0.868948
 C        -2.244720         1.483761         0.545680
 H        -3.661499         1.113814         3.306860
 H        -0.032825         1.791478         2.807095
 H        -1.149283         0.129729         2.439487
 H        -0.478415         0.148526        -0.966566
 H         0.866097         2.692842         0.345647
 H         0.096671         2.289294        -1.197049
 H        -0.854108         4.663804         0.706234
 H        -1.553777         4.222534        -0.716847
 H        -3.176433         3.424082         0.643522
 H        -3.030124         1.065537        -0.055427
