19
Iteration:  3674charge 0 multiplicity 1
 O        -3.135241         1.714192         3.023251
 C        -2.163328         1.893045         1.960098
 C        -0.724885         1.460809         2.052730
 C        -0.774172         1.262268         0.525381
 O        -0.203474         0.016676         0.195834
 C        -0.147491         2.495283        -0.249993
 C        -1.121672         3.725472         0.193762
 C        -2.310719         3.025075         0.882715
 C        -2.300946         1.509676         0.554199
 H        -3.016229         2.488691         3.634215
 H         0.105596         2.099680         2.437095
 H        -0.513824         0.492442         2.427459
 H         0.480543        -0.030770        -0.513307
 H         0.878217         2.725265        -0.033775
 H        -0.160437         2.512025        -1.340289
 H        -0.511643         4.351818         0.791211
 H        -1.555111         4.400603        -0.561599
 H        -3.248507         3.645943         1.010030
 H        -3.107297         1.024877        -0.012700
