19
Iteration:  1788
 O        -3.159768         2.060763         3.045018
 C        -2.220218         1.920338         2.015155
 C        -0.813796         1.249565         2.099857
 C        -0.705712         1.203410         0.576030
 O        -0.148386         0.106981        -0.077047
 C        -0.172326         2.522894        -0.181086
 C        -1.216971         3.739260         0.209128
 C        -2.172493         2.896720         0.910132
 C        -2.201511         1.462993         0.514581
 H        -3.430399         1.182726         3.465454
 H        -0.003600         1.799622         2.765779
 H        -0.783443         0.228961         2.361765
 H         0.209431        -0.366064         0.730916
 H         0.744999         2.937693         0.192561
 H        -0.098419         2.332685        -1.294003
 H        -0.691475         4.548825         0.737803
 H        -1.538425         4.022848        -0.777213
 H        -3.092788         3.470132         1.131501
 H        -2.928566         1.104256        -0.170173
