19
Iteration:  1053
 O        -2.960205         1.958495         3.210494
 C        -2.264293         1.938586         1.901614
 C        -0.817062         1.438628         2.078127
 C        -0.704240         1.250404         0.489663
 O        -0.134932         0.046737        -0.047619
 C        -0.082558         2.492558        -0.131261
 C        -1.043708         3.680635         0.404109
 C        -2.416054         2.917693         0.711112
 C        -2.346409         1.433747         0.449366
 H        -3.917623         2.253817         3.161298
 H        -0.082751         1.976250         2.655863
 H        -1.109736         0.525042         2.535909
 H        -0.388842        -0.895839         0.114569
 H         0.895521         2.655358         0.324566
 H        -0.139538         2.548118        -1.227563
 H        -0.764402         4.148957         1.361190
 H        -1.088048         4.461107        -0.354126
 H        -3.404374         3.363392         0.644259
 H        -2.952963         0.933413        -0.292791
