19
Iteration:   449charge 0 multiplicity 1
 O        -3.203317         1.880065         2.948072
 C        -2.268978         1.825225         1.970031
 C        -0.855707         1.305444         2.147817
 C        -0.757590         1.240353         0.593552
 O        -0.055890         0.039596         0.093065
 C        -0.139240         2.495296        -0.170604
 C        -0.939943         3.717999         0.334064
 C        -2.303116         3.043672         0.779978
 C        -2.377773         1.535502         0.476284
 H        -2.817484         2.381752         3.739689
 H        -0.064201         1.934372         2.675915
 H        -0.800828         0.344393         2.539531
 H         0.328583         0.369639        -0.727419
 H         0.934607         2.593328        -0.013195
 H        -0.378177         2.238491        -1.207118
 H        -0.434546         4.436993         1.080831
 H        -1.206687         4.357789        -0.521942
 H        -3.221952         3.639325         0.707073
 H        -3.068785         0.897908        -0.139331
