19
Iteration:  1192
 O        -3.066228         2.122159         3.008000
 C        -2.219947         1.900117         1.911196
 C        -0.759262         1.292687         2.111445
 C        -0.656330         1.303028         0.529164
 O        -0.168277         0.039279        -0.055626
 C        -0.197092         2.564040        -0.172674
 C        -1.100259         3.623318         0.426343
 C        -2.364847         2.933850         0.847210
 C        -2.271848         1.401170         0.476415
 H        -3.694046         1.330210         2.994186
 H         0.096872         1.881673         2.590283
 H        -0.845903         0.285511         2.545375
 H         0.019809        -0.510366         0.691150
 H         0.850653         2.575513         0.169361
 H        -0.321352         2.480245        -1.260703
 H        -0.515908         4.209343         1.187986
 H        -1.238951         4.347919        -0.426288
 H        -3.213485         3.568393         1.089319
 H        -3.126317         0.918929        -0.013560
