19
Iteration:  3086
 O        -3.080838         1.828941         2.957854
 C        -2.089876         2.057334         2.036744
 C        -0.687927         1.528917         2.104844
 C        -0.746982         1.257063         0.541824
 O        -0.242001        -0.036752        -0.031575
 C        -0.143705         2.560397        -0.097090
 C        -1.166588         3.668981         0.329806
 C        -2.357732         2.856599         0.742286
 C        -2.266580         1.388190         0.589728
 H        -2.968138         2.404690         3.806149
 H         0.060585         2.298240         2.498065
 H        -0.705899         0.603167         2.715535
 H        -0.497081         0.056318        -0.969479
 H         0.909940         2.842417         0.081224
 H        -0.021418         2.355380        -1.226344
 H        -0.810369         4.200267         1.218598
 H        -1.393302         4.392427        -0.465758
 H        -3.352251         3.402114         0.761615
 H        -3.121603         0.827414         0.143171
