19
Iteration:  4096
 O        -3.148022         1.626673         2.856051
 C        -2.158098         1.945866         1.972842
 C        -0.717990         1.523160         2.110278
 C        -0.684957         1.340762         0.539472
 O        -0.257227        -0.003410         0.202773
 C        -0.160808         2.576797        -0.299630
 C        -1.011945         3.680959         0.346383
 C        -2.340712         2.993179         0.801658
 C        -2.264088         1.547789         0.582696
 H        -2.822807         1.819595         3.720539
 H        -0.000725         2.080384         2.726765
 H        -0.973707         0.513803         2.647147
 H        -0.852725        -0.302735        -0.517079
 H         0.993576         2.729881        -0.250165
 H        -0.455333         2.455745        -1.314824
 H        -0.335254         4.113419         1.167624
 H        -1.198788         4.600560        -0.228018
 H        -3.242814         3.528277         0.696617
 H        -3.142198         1.057001         0.127236
