19
Iteration:  3480charge 0 multiplicity 1
 O        -3.158450         1.760808         3.021377
 C        -2.098222         1.981729         1.955684
 C        -0.718648         1.434027         2.114711
 C        -0.706683         1.269441         0.599537
 O        -0.124383         0.061134         0.066624
 C        -0.209317         2.505433        -0.190728
 C        -1.105954         3.696274         0.151757
 C        -2.296426         2.986384         0.846423
 C        -2.385074         1.450331         0.599782
 H        -3.074268         2.411560         3.701953
 H        -0.006122         2.085348         2.640814
 H        -0.705425         0.436152         2.400847
 H        -0.377970         0.104010        -0.911150
 H         0.811644         2.571924         0.121677
 H        -0.268723         2.279182        -1.203176
 H        -0.491024         4.194660         0.929021
 H        -1.393940         4.364775        -0.697093
 H        -3.204042         3.567039         0.912832
 H        -3.098604         0.822376         0.137350
