19
Iteration:  1686charge 0 multiplicity 1
 O        -3.209023         1.842507         2.847600
 C        -2.115625         1.961001         1.973610
 C        -0.694567         1.414238         2.104827
 C        -0.765556         1.284070         0.533022
 O        -0.232226         0.029281         0.143453
 C        -0.250583         2.469822        -0.290549
 C        -1.020317         3.756521         0.337457
 C        -2.212332         3.009652         0.904012
 C        -2.272331         1.489145         0.647067
 H        -3.535721         0.955529         2.889030
 H         0.129337         2.100625         2.411206
 H        -0.797817         0.468752         2.681059
 H         0.666852         0.123738        -0.129549
 H         0.815003         2.279095        -0.410529
 H        -0.629691         2.075631        -1.266353
 H        -0.492079         4.325619         1.106073
 H        -1.463154         4.478540        -0.317019
 H        -3.174709         3.494494         0.951162
 H        -3.064205         1.018906         0.080613
