19
Iteration:  4173charge 0 multiplicity 1
 O        -2.976130         1.904075         3.051030
 C        -2.208237         2.017401         1.979979
 C        -0.844491         1.249013         2.115287
 C        -0.724592         1.267014         0.587703
 O        -0.160162         0.024576        -0.060513
 C        -0.138555         2.544717         0.019128
 C        -1.162935         3.737961         0.288592
 C        -2.327597         2.904129         0.753322
 C        -2.271617         1.453633         0.523070
 H        -3.710648         2.511327         3.111681
 H        -0.029346         1.708836         2.559203
 H        -0.900959         0.132282         2.303902
 H         0.289753         0.419876        -0.799219
 H         0.986137         2.617674         0.276415
 H        -0.240410         2.511511        -1.029323
 H        -0.811538         4.401804         1.128515
 H        -1.383196         4.269377        -0.643411
 H        -3.287687         3.259568         0.433145
 H        -3.167512         1.095375        -0.023477
