19
Iteration:  4090charge 0 multiplicity 1
 O        -3.123475         1.602326         2.831738
 C        -2.155151         2.038341         1.924160
 C        -0.722388         1.501890         2.144840
 C        -0.715213         1.317220         0.482646
 O        -0.254054         0.052814         0.228773
 C        -0.178210         2.555582        -0.267594
 C        -0.980223         3.654276         0.366289
 C        -2.329815         3.048303         0.812267
 C        -2.282555         1.473650         0.582555
 H        -2.956830         1.724389         3.836597
 H         0.205098         2.060014         2.514077
 H        -0.794623         0.578469         2.656463
 H        -0.748364        -0.336634        -0.542652
 H         0.855957         2.528452        -0.207191
 H        -0.520449         2.438836        -1.367465
 H        -0.608403         4.142144         1.252367
 H        -1.115913         4.562701        -0.242849
 H        -3.299750         3.626408         0.735088
 H        -3.190128         0.994532         0.216343
