19
Iteration:  1130charge 0 multiplicity 1
 O        -3.171730         1.682420         2.935973
 C        -2.159257         2.006296         1.980351
 C        -0.736552         1.495699         2.211401
 C        -0.763373         1.339390         0.550911
 O        -0.240849         0.043657         0.052232
 C        -0.178304         2.474098        -0.221886
 C        -0.970042         3.706660         0.210380
 C        -2.319247         3.030372         0.869856
 C        -2.230911         1.494312         0.526247
 H        -2.846251         1.662025         3.888664
 H         0.083858         2.086639         2.624587
 H        -0.637629         0.512226         2.633069
 H        -0.841342        -0.642122         0.310996
 H         0.894173         2.424697        -0.055855
 H        -0.212351         2.297134        -1.310687
 H        -0.457983         4.308980         0.955090
 H        -1.361341         4.282494        -0.594882
 H        -3.270890         3.557944         0.748801
 H        -3.037231         1.208937        -0.179542
