19
Iteration:  2094
 O        -2.915386         1.786877         3.153537
 C        -2.198112         1.957992         1.943950
 C        -0.807256         1.473380         2.093353
 C        -0.808865         1.227999         0.510882
 O        -0.284630         0.001446         0.050039
 C        -0.052013         2.583306        -0.172106
 C        -1.069587         3.655760         0.240579
 C        -2.354093         2.933955         0.876662
 C        -2.335931         1.453733         0.470857
 H        -3.647413         2.426282         3.083943
 H        -0.274830         2.430620         2.485653
 H        -0.825275         0.597479         2.749857
 H         0.363375         0.130484        -0.660860
 H         0.957308         2.644946         0.237614
 H         0.124470         2.442705        -1.291055
 H        -0.697746         4.529888         0.870888
 H        -1.608621         4.077076        -0.588203
 H        -3.248030         3.571096         0.863410
 H        -3.008757         0.966880        -0.206327
