19
Iteration:   294
 O        -3.225736         1.925269         3.064872
 C        -2.215113         1.911964         1.941532
 C        -0.740131         1.413199         2.154087
 C        -0.625253         1.279777         0.564463
 O        -0.191409         0.114890        -0.069045
 C        -0.126689         2.543965        -0.108742
 C        -1.022200         3.658759         0.342772
 C        -2.279573         2.895377         0.736933
 C        -2.228369         1.404893         0.540287
 H        -3.971572         2.392687         2.714578
 H        -0.174810         2.123518         2.773738
 H        -0.690954         0.475062         2.569638
 H        -0.853615        -0.591906         0.068155
 H         0.886367         2.531574         0.260781
 H        -0.032811         2.410727        -1.192448
 H        -0.623832         4.266416         1.159579
 H        -1.245214         4.124480        -0.613558
 H        -3.330569         3.237827         0.675623
 H        -3.011686         0.972910        -0.041966
