19
Iteration:   230
 O        -3.230587         1.740692         2.863610
 C        -2.155469         1.985199         1.986690
 C        -0.755608         1.466633         2.086074
 C        -0.682855         1.277672         0.522340
 O        -0.218068         0.014154         0.271685
 C        -0.124404         2.476762        -0.232153
 C        -1.025133         3.696024         0.297113
 C        -2.339707         2.982425         0.828820
 C        -2.233689         1.533039         0.501238
 H        -2.842436         1.879736         3.759166
 H        -0.080709         2.237873         2.557385
 H        -0.762370         0.482238         2.460127
 H        -0.494532        -0.138578        -0.641072
 H         0.899815         2.743011         0.097815
 H        -0.081420         2.483607        -1.359317
 H        -0.579174         4.254788         1.105936
 H        -1.240677         4.365269        -0.488423
 H        -3.378432         3.396613         0.887000
 H        -3.040805         1.075779        -0.059032
