19
Iteration:  2183charge 0 multiplicity 1
 O        -3.105641         1.899410         3.108839
 C        -2.178125         1.847229         2.022835
 C        -0.781508         1.487598         2.071591
 C        -0.756913         1.297588         0.500546
 O        -0.218702         0.111271        -0.065364
 C        -0.134186         2.472942        -0.225519
 C        -0.973849         3.688082         0.245400
 C        -2.310946         2.957910         0.891401
 C        -2.319946         1.462703         0.538172
 H        -2.687174         1.458569         3.859604
 H        -0.143263         2.227811         2.705977
 H        -0.554340         0.462142         2.381266
 H        -0.813405        -0.616316         0.256107
 H         0.941420         2.569814         0.059946
 H        -0.229016         2.319269        -1.323021
 H        -0.573954         4.340609         1.061260
 H        -1.380274         4.214604        -0.644343
 H        -3.377912         3.219522         0.826676
 H        -3.104422         0.950688        -0.053455
