19
Iteration:  1187charge 0 multiplicity 1
 O        -3.070142         2.102344         3.014720
 C        -2.184583         1.919774         1.927812
 C        -0.787010         1.321437         2.057179
 C        -0.646142         1.287096         0.492954
 O        -0.171516         0.011500        -0.033382
 C        -0.159778         2.554429        -0.166562
 C        -1.119061         3.638497         0.458800
 C        -2.362726         2.916613         0.854312
 C        -2.282792         1.417028         0.453641
 H        -3.713818         1.381844         3.128587
 H        -0.053243         1.972181         2.503138
 H        -0.870867         0.347288         2.587226
 H         0.026775        -0.568119         0.757791
 H         0.916229         2.704995         0.062397
 H        -0.226549         2.495116        -1.262140
 H        -0.548497         4.197391         1.188191
 H        -1.362076         4.355259        -0.319645
 H        -3.207731         3.597714         1.025966
 H        -3.162903         0.922250         0.043102
