19
Iteration:  3965
 O        -3.090474         1.903119         3.101510
 C        -2.211880         1.822791         1.991688
 C        -0.809589         1.346868         2.147318
 C        -0.682894         1.297010         0.560526
 O        -0.299753         0.107066        -0.033347
 C        -0.027495         2.586816        -0.059083
 C        -1.138151         3.632079         0.238345
 C        -2.317619         2.892431         0.833228
 C        -2.279426         1.422088         0.371402
 H        -3.154615         2.875019         3.374043
 H        -0.068154         2.043564         2.679619
 H        -0.976555         0.260517         2.567587
 H         0.588412         0.363943        -0.379496
 H         0.977629         2.944445         0.379550
 H         0.106869         2.465220        -1.156407
 H        -0.711260         4.464466         0.830402
 H        -1.252453         4.038945        -0.751497
 H        -3.264152         3.421204         0.867164
 H        -2.984265         0.826933        -0.137552
