19
Iteration:  3334
 O        -3.004653         1.711810         3.108238
 C        -2.169911         1.918247         1.928835
 C        -0.769261         1.505658         2.068164
 C        -0.666312         1.274573         0.510786
 O        -0.258490        -0.009596         0.303363
 C        -0.235312         2.644034        -0.445967
 C        -1.009337         3.743249         0.340668
 C        -2.290663         2.918769         0.790326
 C        -2.247631         1.469522         0.509794
 H        -3.926967         2.029979         2.821153
 H        -0.224091         2.167892         2.710392
 H        -0.800351         0.440572         2.488707
 H        -0.697885        -0.204673        -0.523478
 H         0.830084         2.747782        -0.565387
 H        -0.678639         2.489220        -1.411751
 H        -0.778659         4.185820         1.311260
 H        -1.193218         4.620932        -0.324839
 H        -3.234060         3.506384         0.905718
 H        -2.988945         0.961034        -0.052037
