19
Iteration:  2943
 O        -3.119938         1.774573         3.027347
 C        -2.180865         1.896245         1.994094
 C        -0.727678         1.551781         2.132645
 C        -0.695515         1.302776         0.554289
 O        -0.200216         0.020894         0.102201
 C        -0.199153         2.523594        -0.328805
 C        -1.038720         3.715963         0.277031
 C        -2.349755         3.023130         0.890550
 C        -2.241000         1.460966         0.567307
 H        -3.074301         0.819833         3.380244
 H        -0.044330         2.256912         2.623710
 H        -0.750989         0.465064         2.435733
 H        -0.851430        -0.221805        -0.612092
 H         0.878070         2.649803        -0.331822
 H        -0.469617         2.362617        -1.387214
 H        -0.369972         4.237805         0.961283
 H        -1.269912         4.328039        -0.619499
 H        -3.261785         3.540602         0.823336
 H        -3.046104         1.021034        -0.018601
