19
Iteration:   237
 O        -3.201726         1.708299         2.906997
 C        -2.161318         1.993721         1.915862
 C        -0.772532         1.421639         2.000129
 C        -0.772693         1.301578         0.522399
 O        -0.191685        -0.009517         0.303521
 C        -0.077209         2.553589        -0.159936
 C        -1.009824         3.716881         0.274255
 C        -2.346316         3.000602         0.818551
 C        -2.260032         1.538448         0.514701
 H        -3.004370         2.002404         3.845048
 H        -0.014245         2.110587         2.352361
 H        -0.622439         0.451792         2.499369
 H        -0.573999        -0.463597        -0.470351
 H         0.998385         2.601592         0.055788
 H        -0.252244         2.405139        -1.231406
 H        -0.619250         4.427935         1.069305
 H        -1.196267         4.500949        -0.532262
 H        -3.297990         3.502482         0.811840
 H        -2.905515         0.835642        -0.032970
