19
Iteration:   644
 O        -3.256351         1.966896         2.796759
 C        -2.131482         1.891919         2.013449
 C        -0.695648         1.397664         2.143715
 C        -0.704493         1.259462         0.617209
 O        -0.252062         0.050291        -0.071481
 C        -0.085239         2.470802        -0.045856
 C        -1.035770         3.760373         0.354972
 C        -2.265647         2.900696         0.890604
 C        -2.318118         1.451997         0.505909
 H        -2.854075         1.413431         3.550577
 H        -0.047436         2.098380         2.776164
 H        -0.580665         0.427488         2.493243
 H        -0.756699        -0.037834        -0.874001
 H         0.954456         2.560548         0.264567
 H        -0.004467         2.321187        -1.180657
 H        -0.579912         4.364676         1.182143
 H        -1.321892         4.451701        -0.425373
 H        -3.211076         3.489214         1.015898
 H        -3.209312         0.921506         0.187935
