19
Iteration:   645charge 0 multiplicity 1
 O        -3.247337         1.965222         2.795562
 C        -2.136886         1.889546         2.014420
 C        -0.707132         1.389573         2.138785
 C        -0.707960         1.261772         0.622190
 O        -0.254249         0.053235        -0.066516
 C        -0.085313         2.472063        -0.043488
 C        -1.031371         3.755984         0.344828
 C        -2.255353         2.907120         0.898234
 C        -2.318959         1.446684         0.508797
 H        -2.846090         1.418516         3.526755
 H        -0.061986         2.102430         2.777059
 H        -0.561301         0.408612         2.464859
 H        -0.765415        -0.043036        -0.858160
 H         0.954919         2.622207         0.246407
 H        -0.013648         2.345909        -1.150894
 H        -0.584275         4.420631         1.159219
 H        -1.334773         4.450489        -0.416322
 H        -3.218257         3.483475         0.999170
 H        -3.210230         0.902114         0.137730
