19
Iteration:  2433charge 0 multiplicity 1
 O        -3.051524         1.813435         3.029368
 C        -2.118619         1.877200         1.977360
 C        -0.651311         1.431136         2.021499
 C        -0.757250         1.345802         0.469981
 O        -0.309044        -0.047652         0.309037
 C        -0.201980         2.598824        -0.363810
 C        -1.079462         3.748750         0.277789
 C        -2.341904         3.002647         0.912892
 C        -2.306870         1.514639         0.513521
 H        -3.041056         0.909653         3.280940
 H         0.144493         2.113924         2.342819
 H        -0.479379         0.431766         2.284722
 H        -0.422041        -0.451138        -0.589755
 H         0.839541         2.635554        -0.130849
 H        -0.500602         2.528568        -1.429475
 H        -0.357909         4.239290         0.992035
 H        -1.298885         4.497749        -0.498694
 H        -3.252513         3.543862         1.094908
 H        -2.956059         0.951075        -0.095599
