19
Iteration:  3786charge 0 multiplicity 1
 O        -3.002589         1.884722         3.017102
 C        -2.176230         1.985101         1.943376
 C        -0.766345         1.323853         2.101401
 C        -0.685028         1.240663         0.604341
 O        -0.221660         0.091281        -0.126233
 C        -0.077390         2.568004         0.002241
 C        -1.198828         3.705613         0.204775
 C        -2.388753         2.917388         0.798760
 C        -2.317575         1.419322         0.574218
 H        -3.094301         2.825540         3.294735
 H         0.037342         1.645177         2.880827
 H        -0.970814         0.331315         2.404900
 H         0.052267        -0.531321         0.566748
 H         0.813360         2.885991         0.498711
 H         0.163716         2.437125        -1.056805
 H        -0.738225         4.530215         0.667948
 H        -1.645211         4.081035        -0.701340
 H        -3.307589         3.416849         0.655755
 H        -2.978578         0.719973         0.140158
