19
Iteration:   967
 O        -3.178278         1.696016         2.917290
 C        -2.092038         1.939550         1.994107
 C        -0.696744         1.475962         2.182801
 C        -0.696941         1.299977         0.584472
 O        -0.418210         0.047169        -0.007371
 C        -0.136510         2.516669        -0.179059
 C        -0.998874         3.660797         0.236498
 C        -2.298458         2.997868         0.826049
 C        -2.305968         1.561102         0.553568
 H        -3.064108         2.332109         3.601639
 H        -0.093247         2.315166         2.483834
 H        -0.381952         0.542535         2.760740
 H         0.427468        -0.335850         0.358276
 H         0.930743         2.696590         0.162808
 H        -0.073238         2.255453        -1.248199
 H        -0.627984         4.208772         1.107938
 H        -1.202990         4.279689        -0.630621
 H        -3.317629         3.407033         0.795662
 H        -2.939570         0.856765         0.022719
