19
Iteration:  3835
 O        -3.161994         1.882951         2.949170
 C        -2.106715         1.934349         1.958109
 C        -0.735724         1.382706         2.059867
 C        -0.738183         1.217072         0.542065
 O        -0.172397         0.026744        -0.020975
 C        -0.119546         2.546507        -0.001430
 C        -1.143410         3.644738         0.213739
 C        -2.343446         2.960530         0.919692
 C        -2.278555         1.462276         0.606567
 H        -3.041155         2.785049         3.263249
 H        -0.021752         2.016307         2.510312
 H        -0.670906         0.444280         2.726161
 H        -0.282692         0.187622        -0.992553
 H         0.934994         2.553765         0.426986
 H        -0.043213         2.613659        -1.106260
 H        -0.714138         4.521596         0.798407
 H        -1.364263         4.062348        -0.794866
 H        -3.340410         3.490868         0.920729
 H        -3.098883         0.859173         0.178827
