19
Iteration:  4423charge 0 multiplicity 1
 O        -3.086450         1.755037         3.017390
 C        -2.219712         1.857076         1.931219
 C        -0.789280         1.449115         2.150808
 C        -0.667552         1.313541         0.600798
 O        -0.379233         0.059339         0.039406
 C        -0.162739         2.532605        -0.291169
 C        -1.022493         3.804163         0.306858
 C        -2.332230         2.957476         0.849484
 C        -2.214160         1.561520         0.501296
 H        -2.936325         0.935489         3.431964
 H        -0.052124         2.153375         2.608974
 H        -0.681008         0.426751         2.686108
 H         0.468531        -0.271801         0.442151
 H         0.926361         2.659091         0.047607
 H        -0.355653         2.119926        -1.349007
 H        -0.415223         4.344567         1.123471
 H        -1.276739         4.350753        -0.577593
 H        -3.304076         3.496775         0.733662
 H        -2.616247         0.932420        -0.286791
