19
Iteration:  2282charge 0 multiplicity 1
 O        -3.011014         1.930105         3.088065
 C        -2.171519         2.030523         2.037040
 C        -0.634235         1.402234         2.174935
 C        -0.780960         1.261869         0.619875
 O        -0.278026         0.132736        -0.229239
 C        -0.181965         2.426198        -0.111458
 C        -1.104560         3.660646         0.137025
 C        -2.361974         2.939088         0.871903
 C        -2.338279         1.412480         0.640650
 H        -3.361385         1.083445         2.942086
 H         0.330558         1.851645         2.599543
 H        -0.849703         0.502398         2.774403
 H         0.682244         0.007264         0.046114
 H         0.904668         2.676545         0.079099
 H        -0.117379         2.175909        -1.195420
 H        -0.766927         4.574513         0.744995
 H        -1.547633         3.976374        -0.848731
 H        -3.188095         3.600074         0.882452
 H        -3.162743         0.835962         0.157247
