19
Iteration:  3912charge 0 multiplicity 1
 O        -3.244158         1.656547         2.814520
 C        -2.162467         1.952003         2.046587
 C        -0.668282         1.600151         2.039770
 C        -0.739486         1.334124         0.528606
 O        -0.261276         0.010889         0.049133
 C        -0.181250         2.439265        -0.317312
 C        -1.028009         3.662316         0.391357
 C        -2.286325         3.028187         0.888583
 C        -2.289984         1.521591         0.637584
 H        -3.199309         2.055882         3.750957
 H         0.043901         2.343983         2.413804
 H        -0.257781         0.634826         2.567643
 H         0.335884        -0.246751         0.793247
 H         0.919269         2.433870        -0.026417
 H        -0.268126         2.431231        -1.430431
 H        -0.440439         4.082472         1.249766
 H        -1.119444         4.414604        -0.408811
 H        -3.164426         3.643721         0.795009
 H        -3.085041         0.945444         0.244948
