19
Iteration:   991charge 0 multiplicity 1
 O        -3.195927         1.790934         3.009468
 C        -2.126021         1.999647         1.981163
 C        -0.728395         1.400731         2.101871
 C        -0.675599         1.222823         0.563344
 O        -0.322032         0.049501        -0.027611
 C        -0.141167         2.580783        -0.219100
 C        -1.007696         3.713747         0.259134
 C        -2.317943         2.974604         0.966052
 C        -2.212490         1.457002         0.542280
 H        -3.701053         2.657720         2.946659
 H         0.132505         1.834776         2.618974
 H        -0.956894         0.372834         2.571418
 H         0.226030        -0.537936         0.514843
 H         0.923943         2.700123        -0.018658
 H        -0.160593         2.443186        -1.312664
 H        -0.564769         4.498266         0.844466
 H        -1.414368         4.119097        -0.688002
 H        -3.354574         3.288060         0.878219
 H        -2.912547         0.860885        -0.038391
