19
Iteration:  4283charge 0 multiplicity 1
 O        -3.241810         1.666068         2.942547
 C        -2.182249         1.827595         2.001034
 C        -0.695030         1.514708         2.057773
 C        -0.724411         1.280989         0.442827
 O        -0.307315        -0.004746         0.120637
 C        -0.107192         2.537666        -0.291475
 C        -1.062858         3.748750         0.319612
 C        -2.230843         3.019214         0.918385
 C        -2.286028         1.554281         0.515886
 H        -2.850134         1.843820         3.813362
 H        -0.061871         2.295114         2.400008
 H        -0.393872         0.678226         2.818493
 H         0.547929        -0.189613         0.619595
 H         1.048692         2.755949        -0.131023
 H        -0.379131         2.534741        -1.341183
 H        -0.573673         4.546738         1.002503
 H        -1.316607         4.321700        -0.648525
 H        -3.207282         3.559442         1.167546
 H        -3.156699         1.138879         0.074229
