19
Iteration:   318charge 0 multiplicity 1
 O        -3.174458         2.026320         2.922680
 C        -2.128586         1.960009         1.934337
 C        -0.744758         1.363938         2.189947
 C        -0.735388         1.181638         0.612667
 O        -0.128995         0.107048        -0.102315
 C        -0.134628         2.545891        -0.128269
 C        -1.072070         3.645324         0.374145
 C        -2.317990         2.940708         0.905983
 C        -2.319213         1.414708         0.480483
 H        -3.976892         1.970627         2.332564
 H         0.115018         1.819782         2.666084
 H        -0.979544         0.444576         2.597834
 H         0.075389        -0.675327         0.405792
 H         0.922747         2.627833         0.158845
 H        -0.115777         2.366699        -1.225120
 H        -0.667421         4.223986         1.202481
 H        -1.427151         4.181238        -0.434399
 H        -3.251448         3.522580         1.018693
 H        -2.982688         0.645694         0.077577
