19
Iteration:  4673
 O        -3.033826         1.938495         3.042779
 C        -2.219515         1.927254         1.953327
 C        -0.824104         1.409403         2.018531
 C        -0.741138         1.309416         0.521408
 O        -0.229256         0.038917         0.069343
 C        -0.125632         2.583783        -0.142117
 C        -1.023680         3.682026         0.399152
 C        -2.402679         2.920775         0.808209
 C        -2.283514         1.400900         0.434299
 H        -2.886910         1.290127         3.693109
 H        -0.084874         2.088194         2.510757
 H        -0.762060         0.509292         2.719509
 H         0.097208         0.160232        -0.842934
 H         0.911311         2.533169         0.177991
 H        -0.143405         2.367865        -1.188743
 H        -0.623866         4.132669         1.297433
 H        -1.226044         4.410081        -0.395442
 H        -3.384452         3.353686         0.773824
 H        -2.828027         0.597059        -0.090107
