19
Iteration:   806charge 0 multiplicity 1
 O        -3.154815         1.737009         2.990889
 C        -2.204817         2.025383         1.915874
 C        -0.841787         1.434132         2.066200
 C        -0.715986         1.289127         0.499882
 O        -0.276816        -0.047138         0.050607
 C        -0.040971         2.577292        -0.149847
 C        -1.015543         3.750439         0.325712
 C        -2.275732         3.014634         0.830814
 C        -2.331692         1.450045         0.483200
 H        -2.479948         1.637443         3.672438
 H        -0.090743         2.134972         2.370445
 H        -0.733808         0.473742         2.533265
 H        -0.080026        -0.519822         0.881931
 H         0.877453         2.655667         0.380780
 H         0.302755         2.427017        -1.139493
 H        -0.541763         4.297503         1.119913
 H        -1.418687         4.378808        -0.508840
 H        -3.182700         3.674894         0.855246
 H        -3.216760         1.182270        -0.139275
