19
Iteration:   521charge 0 multiplicity 1
 O        -3.150473         1.852595         2.918689
 C        -2.122545         1.961113         1.951861
 C        -0.754477         1.444196         2.262413
 C        -0.729710         1.348597         0.580989
 O        -0.349254         0.064321        -0.034193
 C        -0.033960         2.503200        -0.045918
 C        -1.029251         3.608129         0.334491
 C        -2.312385         2.913211         0.843665
 C        -2.185229         1.436375         0.466619
 H        -3.979815         2.306479         2.604443
 H        -0.131909         2.265092         2.591142
 H        -0.629774         0.501370         2.906090
 H        -0.521527         0.108892        -0.973624
 H         1.007578         2.548502         0.357230
 H        -0.101063         2.473216        -1.173392
 H        -0.684873         4.335611         1.041100
 H        -1.418351         4.076775        -0.610233
 H        -3.318034         3.333930         0.836450
 H        -2.791472         0.676061        -0.092659
