19
Iteration:   682
 O        -3.101295         1.850050         3.093759
 C        -2.210534         2.023097         1.974295
 C        -0.891305         1.303188         2.041040
 C        -0.741505         1.280877         0.495279
 O        -0.172903        -0.055688         0.135059
 C         0.026219         2.520681        -0.057709
 C        -1.051490         3.743059         0.264040
 C        -2.295820         3.029502         0.872533
 C        -2.345600         1.599701         0.359559
 H        -3.425539         0.958623         3.180759
 H        -0.126746         1.734792         2.643480
 H        -0.757669         0.151442         2.041804
 H        -0.488594        -0.041664        -0.790767
 H         0.933619         2.952978         0.426855
 H         0.157917         2.378083        -1.086543
 H        -0.614463         4.414592         1.044027
 H        -1.428479         4.234923        -0.674828
 H        -3.303761         3.356856         0.816735
 H        -3.014424         1.031168        -0.276888
