19
Iteration:  4346charge 0 multiplicity 1
 O        -3.095590         2.053172         3.072358
 C        -2.214944         1.908653         1.924446
 C        -0.790254         1.384811         2.190048
 C        -0.659932         1.241937         0.518773
 O        -0.276281         0.059191        -0.100666
 C        -0.100943         2.549682        -0.128275
 C        -1.159081         3.670963         0.344281
 C        -2.407356         2.883460         0.866996
 C        -2.158284         1.403025         0.467679
 H        -3.245159         1.142495         3.470419
 H        -0.038560         1.978646         2.784454
 H        -0.872860         0.325892         2.550198
 H         0.617574         0.158047        -0.514682
 H         0.954082         2.811708         0.136132
 H         0.040794         2.362509        -1.168219
 H        -0.686609         4.236344         1.200617
 H        -1.232935         4.493565        -0.334844
 H        -3.432078         3.214016         0.607527
 H        -2.851274         0.853325        -0.124732
