19
Iteration:  4955
 O        -3.162470         1.970903         3.015209
 C        -2.220934         1.846294         1.943306
 C        -0.778630         1.385440         2.114051
 C        -0.720383         1.243359         0.485284
 O        -0.098357         0.059274         0.025382
 C        -0.210955         2.554531        -0.222245
 C        -1.068469         3.651150         0.410298
 C        -2.307853         2.972343         0.892111
 C        -2.232676         1.480343         0.509868
 H        -3.391724         1.118273         3.527885
 H        -0.093323         2.224939         2.561232
 H        -0.566582         0.525982         2.709519
 H        -0.224985         0.012402        -0.947598
 H         0.916852         2.622046        -0.127199
 H        -0.397827         2.417318        -1.273891
 H        -0.444250         4.158105         1.102002
 H        -1.403096         4.401440        -0.350975
 H        -3.310854         3.427536         0.905532
 H        -3.008744         0.889548         0.017684
