19
Iteration:  3433charge 0 multiplicity 1
 O        -2.965327         1.992882         3.130534
 C        -2.203165         1.794538         1.913676
 C        -0.803561         1.273806         2.131571
 C        -0.724509         1.279099         0.507807
 O        -0.202268         0.023313         0.038332
 C        -0.090731         2.635960        -0.038455
 C        -1.226051         3.746523         0.160389
 C        -2.359105         2.830158         0.817338
 C        -2.265728         1.444625         0.485970
 H        -3.075812         3.009585         3.197472
 H        -0.003624         1.880179         2.585949
 H        -0.830520         0.256940         2.569170
 H        -0.067382         0.204436        -0.898435
 H         0.723233         2.848592         0.633747
 H         0.228234         2.607826        -1.089259
 H        -0.781788         4.462556         0.847019
 H        -1.631105         4.133179        -0.802161
 H        -3.323077         3.322728         0.918830
 H        -3.058332         0.827708        -0.034705
