19
Iteration:   399
 O        -3.255991         1.785156         2.796191
 C        -2.094024         1.942161         1.949430
 C        -0.682082         1.568833         2.181949
 C        -0.719726         1.266672         0.469741
 O        -0.406956        -0.047338         0.063986
 C        -0.137008         2.541599        -0.083520
 C        -1.028808         3.704792         0.362050
 C        -2.254751         2.973839         0.797754
 C        -2.250987         1.481563         0.513498
 H        -2.876532         1.345241         3.567127
 H         0.030275         2.349265         2.532552
 H        -0.374007         0.595201         2.752826
 H         0.522604        -0.290130         0.226007
 H         0.915390         2.721023         0.277446
 H        -0.235153         2.381696        -1.175477
 H        -0.652850         4.325292         1.165017
 H        -1.056473         4.543168        -0.369089
 H        -3.174863         3.480280         1.081040
 H        -3.078807         0.864314         0.236682
