19
Iteration:  4940charge 0 multiplicity 1
 O        -3.185438         1.915421         2.981202
 C        -2.151131         1.891096         2.039309
 C        -0.712020         1.447274         2.036198
 C        -0.783548         1.292038         0.485642
 O        -0.097893         0.049916         0.061991
 C        -0.156205         2.469922        -0.120795
 C        -1.060879         3.706436         0.284518
 C        -2.306495         2.917711         0.947597
 C        -2.410828         1.475976         0.468909
 H        -2.871187         1.182955         3.460523
 H         0.069114         1.970673         2.574002
 H        -0.691825         0.324172         2.242004
 H        -0.007714         0.011922        -0.883666
 H         0.804651         2.639519         0.299510
 H        -0.008915         2.561844        -1.232279
 H        -0.696892         4.409863         1.140297
 H        -1.264679         4.417792        -0.503872
 H        -3.195818         3.509305         1.017445
 H        -3.213032         1.000465        -0.134781
