19
Iteration:  1452
 O        -3.117108         1.831951         2.902900
 C        -2.118857         2.049836         2.022641
 C        -0.757630         1.369288         2.117591
 C        -0.758976         1.364391         0.521150
 O        -0.251258         0.072532         0.081575
 C        -0.231183         2.503179        -0.218559
 C        -1.054292         3.622821         0.240514
 C        -2.216991         3.005466         0.902926
 C        -2.319086         1.448405         0.620545
 H        -3.556482         0.920185         2.793441
 H         0.032401         1.809716         2.705722
 H        -0.970376         0.288303         2.496098
 H         0.726142         0.056912         0.264476
 H         0.894056         2.443709        -0.170227
 H        -0.457944         2.295174        -1.260221
 H        -0.451543         4.249833         0.863459
 H        -1.343665         4.253260        -0.627187
 H        -2.979799         3.731919         1.025993
 H        -3.097953         1.003936         0.040018
