19
Iteration:   760
 O        -3.213435         1.842749         2.904567
 C        -2.168807         1.900799         2.043233
 C        -0.781911         1.432942         2.188745
 C        -0.696218         1.256901         0.515798
 O        -0.297815         0.030186        -0.013187
 C        -0.215465         2.530324        -0.248598
 C        -0.910688         3.684491         0.371126
 C        -2.247106         2.948327         0.890840
 C        -2.212216         1.476443         0.539168
 H        -3.752116         2.675269         2.866820
 H        -0.133617         2.048345         2.765846
 H        -0.847945         0.405162         2.665878
 H         0.660472         0.052916         0.012248
 H         0.859215         2.675433        -0.364763
 H        -0.511606         2.437867        -1.253967
 H        -0.489785         3.934894         1.336080
 H        -1.289150         4.558792        -0.242724
 H        -3.262587         3.410130         0.878047
 H        -2.846402         0.941646        -0.168391
