19
Iteration:  4663charge 0 multiplicity 1
 O        -3.097088         1.939679         3.097069
 C        -2.260509         1.853086         1.893981
 C        -0.782790         1.498803         2.115899
 C        -0.682995         1.272356         0.538353
 O        -0.280896         0.056584         0.063635
 C        -0.114153         2.486104        -0.208841
 C        -1.073967         3.668170         0.407522
 C        -2.347418         2.899792         0.834763
 C        -2.184696         1.465858         0.405519
 H        -2.850784         1.114948         3.485150
 H        -0.083345         2.178373         2.635792
 H        -0.868019         0.421251         2.483403
 H         0.157226         0.251545        -0.801348
 H         0.868714         2.820970        -0.216396
 H        -0.422131         2.437861        -1.264799
 H        -0.568608         4.187499         1.278009
 H        -1.271665         4.524889        -0.240999
 H        -3.202162         3.458251         0.625808
 H        -2.936706         0.812717        -0.033480
