19
Iteration:  1458
 O        -3.156620         1.847272         2.934466
 C        -2.133626         1.990545         1.989339
 C        -0.781063         1.430647         2.127878
 C        -0.737245         1.309570         0.517381
 O        -0.224313         0.048624         0.073128
 C        -0.198096         2.487129        -0.281041
 C        -1.033600         3.628593         0.237416
 C        -2.224390         2.985641         0.941544
 C        -2.345775         1.500473         0.663907
 H        -3.499956         0.977517         2.684434
 H         0.110746         1.836948         2.720862
 H        -0.824937         0.406774         2.278820
 H         0.749100         0.202830         0.207751
 H         0.874569         2.522071        -0.182156
 H        -0.526701         2.436838        -1.359309
 H        -0.447126         4.186595         1.056497
 H        -1.189396         4.304013        -0.603833
 H        -3.132779         3.647052         1.043283
 H        -3.157578         1.035499         0.041965
