19
Iteration:  4461charge 0 multiplicity 1
 O        -3.159677         1.800374         2.908481
 C        -2.142961         1.971424         2.018532
 C        -0.643298         1.570160         1.967504
 C        -0.742148         1.295092         0.464332
 O        -0.331187        -0.088146         0.089664
 C        -0.113601         2.511239        -0.172414
 C        -1.081406         3.683451         0.434869
 C        -2.352015         3.017793         0.934655
 C        -2.269286         1.494546         0.539932
 H        -3.352095         0.840898         2.903492
 H         0.148451         2.290726         2.193320
 H        -0.397087         0.657106         2.462141
 H         0.650184        -0.125448        -0.035454
 H         0.880047         2.673376         0.068356
 H        -0.102104         2.572277        -1.188551
 H        -0.658153         4.298565         1.168693
 H        -1.435035         4.458386        -0.264764
 H        -3.366575         3.433796         0.849197
 H        -2.966533         0.856312        -0.010699
