19
Iteration:  4749
 O        -3.138051         1.866244         3.021642
 C        -2.167383         1.945357         2.029440
 C        -0.724559         1.362975         2.157990
 C        -0.727028         1.293069         0.585780
 O        -0.274827         0.083829        -0.021491
 C        -0.069066         2.557610        -0.094804
 C        -1.089115         3.660923         0.177964
 C        -2.349501         3.009914         0.848626
 C        -2.223774         1.464393         0.558673
 H        -3.570985         0.933377         2.948402
 H         0.018828         1.938199         2.723533
 H        -0.639498         0.278358         2.487741
 H        -0.231059         0.233081        -1.001721
 H         1.010389         2.771728         0.163557
 H        -0.095901         2.231801        -1.124172
 H        -0.748106         4.522398         0.731553
 H        -1.343717         4.117652        -0.825931
 H        -3.308679         3.441723         1.079137
 H        -2.860025         0.684898         0.023072
