19
Iteration:  4801charge 0 multiplicity 1
 O        -3.102268         1.822502         3.017412
 C        -2.220270         1.847867         1.918907
 C        -0.742800         1.498868         2.051506
 C        -0.696393         1.296336         0.477555
 O        -0.233673         0.034514         0.226226
 C        -0.212796         2.552581        -0.304280
 C        -1.012628         3.673446         0.479416
 C        -2.271421         2.943414         0.803676
 C        -2.319501         1.552520         0.439517
 H        -3.017444         0.990152         3.589058
 H        -0.040118         2.088326         2.656627
 H        -0.702365         0.535284         2.340166
 H        -0.133545        -0.157090        -0.726106
 H         0.852605         2.820375        -0.080815
 H        -0.360268         2.442528        -1.368893
 H        -0.470905         4.101915         1.256767
 H        -1.198996         4.543946        -0.153088
 H        -3.284602         3.343882         0.745994
 H        -3.140283         1.077478        -0.184382
