19
Iteration:  2648
 O        -3.041404         1.870025         3.206541
 C        -2.180413         1.936008         1.999791
 C        -0.782780         1.527006         2.146652
 C        -0.790012         1.299597         0.504934
 O        -0.254961         0.049248        -0.128861
 C        -0.120424         2.405297        -0.219853
 C        -1.055565         3.593928         0.261346
 C        -2.295214         2.935374         0.953883
 C        -2.304162         1.498850         0.538691
 H        -3.801266         1.317905         3.077503
 H        -0.181317         2.327048         2.421910
 H        -0.716149         0.631364         2.778384
 H         0.400839         0.378035        -0.738302
 H         0.905197         2.574875         0.095118
 H        -0.146654         2.214015        -1.327471
 H        -0.460357         4.427973         0.615402
 H        -1.370896         4.081716        -0.678097
 H        -3.132790         3.729198         0.911168
 H        -2.992034         1.129919        -0.248963
