19
Iteration:  3355
 O        -3.021106         1.761587         3.086822
 C        -2.204993         1.887163         1.967269
 C        -0.736388         1.517336         2.077222
 C        -0.768491         1.312198         0.473460
 O        -0.170955         0.050524         0.213797
 C        -0.268435         2.415820        -0.307937
 C        -1.048130         3.635002         0.322420
 C        -2.322576         2.987834         0.918520
 C        -2.264584         1.543012         0.454227
 H        -3.906566         2.172726         2.886943
 H        -0.141791         2.342077         2.426282
 H        -0.571306         0.481680         2.564936
 H        -0.027925         0.075176        -0.756233
 H         0.767705         2.735154        -0.326501
 H        -0.506143         2.303754        -1.369278
 H        -0.342361         4.121262         1.039078
 H        -1.214865         4.529110        -0.303193
 H        -3.254045         3.553212         0.656523
 H        -2.940589         0.979847        -0.111053
