19
Iteration:  1262
 O        -3.089822         1.849761         3.004942
 C        -2.187237         1.909476         1.884432
 C        -0.695220         1.459350         2.047559
 C        -0.765801         1.263230         0.528528
 O        -0.354446         0.039988         0.133199
 C        -0.040668         2.569589        -0.036645
 C        -1.038520         3.664071         0.291903
 C        -2.247866         2.950413         0.873578
 C        -2.337783         1.488137         0.404733
 H        -2.662925         1.116973         3.447924
 H         0.006249         2.297300         2.448668
 H        -0.619235         0.532732         2.482178
 H        -0.992223        -0.603329        -0.107430
 H         0.908836         2.996049         0.201323
 H        -0.098530         2.675928        -1.142246
 H        -0.707623         4.505476         0.917775
 H        -1.338963         4.096105        -0.646789
 H        -3.214752         3.484960         0.851114
 H        -2.996153         0.889101        -0.225368
