19
Iteration:   220charge 0 multiplicity 1
 O        -3.248555         1.791666         2.834668
 C        -2.206099         1.944040         1.939729
 C        -0.717353         1.562807         2.207376
 C        -0.658399         1.319000         0.564490
 O        -0.239114         0.006498         0.170018
 C        -0.150454         2.491550        -0.259703
 C        -1.076673         3.617424         0.316676
 C        -2.260750         2.963397         0.871358
 C        -2.244606         1.507585         0.513829
 H        -2.899103         1.750188         3.776473
 H         0.070951         2.052617         2.882908
 H        -0.709992         0.559526         2.641227
 H        -0.154821         0.004653        -0.795734
 H         0.903380         2.696671         0.023933
 H        -0.178185         2.241963        -1.371062
 H        -0.435454         4.092379         1.022785
 H        -1.325601         4.309247        -0.433828
 H        -3.240884         3.496438         0.730870
 H        -3.041898         1.031453        -0.034640
