19
Iteration:   740charge 0 multiplicity 1
 O        -3.259241         1.921203         3.003332
 C        -2.244826         1.904421         1.992004
 C        -0.718112         1.446902         2.208561
 C        -0.656288         1.278390         0.490658
 O        -0.301558        -0.022415        -0.048573
 C        -0.122907         2.532710        -0.253741
 C        -1.002679         3.692267         0.498361
 C        -2.228011         2.965842         0.839725
 C        -2.190734         1.409275         0.528937
 H        -4.179565         2.256211         2.742768
 H        -0.036735         2.050532         2.784267
 H        -0.642409         0.384764         2.540005
 H         0.455736         0.008488        -0.655933
 H         0.944772         2.691097        -0.134380
 H        -0.312822         2.494127        -1.339262
 H        -0.407557         4.249112         1.211034
 H        -1.162934         4.393552        -0.371755
 H        -3.283866         3.303491         0.656140
 H        -3.022109         0.903722         0.006205
