19
Iteration:  2627charge 0 multiplicity 1
 O        -3.095276         1.844482         3.082419
 C        -2.148128         1.950982         2.065633
 C        -0.715004         1.417171         2.118777
 C        -0.760032         1.282133         0.515256
 O        -0.303560         0.011582         0.014013
 C        -0.209866         2.477468        -0.337514
 C        -1.032077         3.756061         0.224015
 C        -2.240977         2.970220         0.914015
 C        -2.295657         1.508399         0.597771
 H        -3.632614         1.033039         3.048215
 H        -0.070820         2.062789         2.687460
 H        -0.563065         0.382965         2.468073
 H         0.637013        -0.041775        -0.254460
 H         0.854254         2.662080        -0.328441
 H        -0.504939         2.511179        -1.398488
 H        -0.382616         4.256536         0.928854
 H        -1.343511         4.558508        -0.443242
 H        -3.242573         3.514065         0.735611
 H        -3.131308         0.893482         0.207965
