19
Iteration:   324
 O        -3.167727         2.015830         2.932310
 C        -2.151333         1.992507         1.914132
 C        -0.724721         1.337586         2.127406
 C        -0.694687         1.207101         0.584791
 O        -0.133298         0.115389        -0.075740
 C        -0.179040         2.509427        -0.096772
 C        -1.081488         3.596435         0.413297
 C        -2.302063         2.950071         0.874583
 C        -2.303448         1.444007         0.484311
 H        -4.013789         1.872847         2.423844
 H         0.029172         1.895789         2.753666
 H        -1.035006         0.311157         2.594512
 H         0.203016        -0.580698         0.531895
 H         0.866157         2.541111         0.229567
 H        -0.239898         2.374886        -1.174348
 H        -0.615386         4.439480         1.014071
 H        -1.353302         4.234294        -0.536838
 H        -3.250087         3.442198         1.076209
 H        -3.106115         0.810460         0.117967
