19
Iteration:  1041
 O        -2.903830         1.966284         3.173307
 C        -2.276730         1.985701         1.927126
 C        -0.920471         1.394026         2.049519
 C        -0.812915         1.187687         0.510664
 O        -0.104509         0.099794        -0.074432
 C        -0.141742         2.524327        -0.083304
 C        -1.099206         3.600160         0.374601
 C        -2.326364         2.930669         0.754752
 C        -2.260505         1.458876         0.421251
 H        -3.869676         2.157616         2.988318
 H        -0.127603         1.977200         2.588141
 H        -0.830764         0.438967         2.507773
 H        -0.313081        -0.488953         0.648954
 H         0.897379         2.574448         0.256113
 H         0.091629         2.348098        -1.147854
 H        -0.590422         3.969058         1.303686
 H        -1.312047         4.458261        -0.262347
 H        -3.256607         3.442098         0.516693
 H        -3.069777         0.970701        -0.078615
