19
Iteration:  1297charge 0 multiplicity 1
 O        -3.168778         1.808447         3.015548
 C        -2.163760         1.995608         1.968885
 C        -0.665364         1.513988         2.030696
 C        -0.726509         1.218885         0.519609
 O        -0.306830        -0.054323         0.158626
 C        -0.111857         2.546379        -0.205387
 C        -1.034623         3.718597         0.382814
 C        -2.315530         3.041283         0.811562
 C        -2.257248         1.486763         0.471401
 H        -3.224829         0.878704         3.161650
 H         0.142505         2.171334         2.443070
 H        -0.560145         0.644280         2.715383
 H        -0.718880        -0.365809        -0.639862
 H         0.968594         2.868241        -0.144888
 H        -0.446066         2.362091        -1.241124
 H        -0.428359         4.081301         1.211429
 H        -1.114208         4.564986        -0.304167
 H        -3.299256         3.483150         0.616580
 H        -2.992464         0.867256         0.009998
