19
Iteration:  1575
 O        -3.125416         1.970979         3.043716
 C        -2.180573         1.921910         2.045559
 C        -0.739938         1.285355         2.129231
 C        -0.731659         1.297544         0.585684
 O        -0.255243         0.160689        -0.080547
 C        -0.037318         2.479335        -0.023611
 C        -1.117083         3.626417         0.059885
 C        -2.287465         2.949002         0.867253
 C        -2.353233         1.540377         0.567723
 H        -3.471155         1.039146         3.154251
 H         0.058838         1.829777         2.614710
 H        -0.717606         0.179324         2.467381
 H         0.697257        -0.101804        -0.121445
 H         0.948137         2.684426         0.470035
 H         0.125964         2.234097        -1.076172
 H        -0.861862         4.509270         0.609021
 H        -1.474265         3.918038        -0.934392
 H        -3.315817         3.367818         0.952913
 H        -3.115675         0.925894         0.036556
