19
Iteration:  3315charge 0 multiplicity 1
 O        -2.997925         1.728439         2.999054
 C        -2.155576         2.016500         1.937209
 C        -0.636652         1.522293         2.030283
 C        -0.750705         1.302889         0.512200
 O        -0.244902        -0.048760         0.219754
 C        -0.249379         2.568979        -0.222947
 C        -1.087976         3.715273         0.346676
 C        -2.359188         2.986662         0.858012
 C        -2.242203         1.486588         0.518949
 H        -3.911745         1.941159         2.773268
 H         0.250734         2.125280         2.362063
 H        -0.540581         0.549651         2.469070
 H        -0.797587        -0.562624        -0.400387
 H         0.842021         2.646219        -0.057556
 H        -0.508528         2.303601        -1.288797
 H        -0.518825         4.284008         1.171018
 H        -1.417442         4.387077        -0.494484
 H        -3.345102         3.370936         0.582570
 H        -2.956944         0.766249        -0.006741
