19
Iteration:  2471
 O        -2.966215         1.931221         3.137318
 C        -2.176390         1.959759         1.976216
 C        -0.709720         1.484110         2.104861
 C        -0.806873         1.236866         0.501845
 O        -0.226614         0.044937        -0.108751
 C        -0.148347         2.452766         0.006417
 C        -1.077159         3.695696         0.234506
 C        -2.395897         2.935968         0.727109
 C        -2.340834         1.440405         0.555732
 H        -2.673728         1.204672         3.741063
 H        -0.084733         2.339098         2.399242
 H        -0.603274         0.699874         2.932616
 H        -0.922251        -0.208490        -0.695708
 H         0.894159         2.688140         0.319380
 H         0.024284         2.273904        -1.063189
 H        -0.600079         4.343634         0.999039
 H        -1.368976         4.309792        -0.649851
 H        -3.379674         3.429732         0.761257
 H        -2.915436         0.715417        -0.119108
