19
Iteration:  1469charge 0 multiplicity 1
 O        -3.220397         1.879793         3.003654
 C        -2.181930         1.904710         2.050765
 C        -0.714266         1.460088         2.094418
 C        -0.747764         1.232050         0.502305
 O        -0.186217         0.012339         0.066957
 C        -0.182745         2.450901        -0.360677
 C        -0.967234         3.676412         0.312613
 C        -2.297719         3.033096         0.930695
 C        -2.307184         1.556683         0.560203
 H        -3.725474         0.988390         2.898834
 H         0.014306         2.172302         2.630026
 H        -0.642046         0.484661         2.503712
 H         0.801163         0.133979        -0.031912
 H         0.856848         2.713821        -0.275941
 H        -0.360673         2.250478        -1.456688
 H        -0.373043         4.199668         1.136954
 H        -1.298145         4.479436        -0.351394
 H        -3.348306         3.409380         0.904149
 H        -3.215885         1.006067         0.194614
