19
Iteration:  3500
 O        -3.181690         1.758247         2.964146
 C        -2.159366         1.862068         2.006101
 C        -0.695496         1.502715         2.143714
 C        -0.656381         1.291871         0.535719
 O        -0.291888         0.064519         0.167840
 C        -0.194949         2.503735        -0.367114
 C        -1.083705         3.681929         0.310363
 C        -2.314213         2.955831         0.893907
 C        -2.182008         1.538292         0.550469
 H        -2.867027         2.170947         3.743433
 H        -0.010051         2.298883         2.527305
 H        -0.578130         0.534966         2.564354
 H        -0.167405        -0.274374        -0.741534
 H         0.822265         2.775248        -0.366495
 H        -0.611449         2.178261        -1.357793
 H        -0.590810         4.412351         0.978140
 H        -1.479248         4.226889        -0.588033
 H        -3.268639         3.396270         0.728586
 H        -2.821030         0.951715        -0.105334
