19
Iteration:  3099
 O        -3.090311         1.749907         3.057221
 C        -2.236481         1.928642         1.935878
 C        -0.719335         1.562801         2.155031
 C        -0.681160         1.297527         0.546542
 O        -0.301223         0.107953         0.037227
 C        -0.115987         2.512637        -0.218148
 C        -1.066003         3.602023         0.256970
 C        -2.341474         2.943244         0.816391
 C        -2.238432         1.418503         0.582629
 H        -2.759185         2.359426         3.688856
 H         0.050343         2.272664         2.608157
 H        -0.595717         0.595324         2.601680
 H        -0.696373         0.037817        -0.849645
 H         0.877518         2.607107         0.247273
 H        -0.209339         2.461409        -1.311218
 H        -0.575586         4.275189         0.997130
 H        -1.331915         4.250520        -0.587587
 H        -3.374201         3.280437         0.518006
 H        -2.915814         0.821004         0.040403
