19
Iteration:  4631charge 0 multiplicity 1
 O        -3.213260         1.840445         2.918525
 C        -2.153346         1.930984         1.954794
 C        -0.679618         1.494560         2.032553
 C        -0.754481         1.228807         0.504882
 O        -0.225252         0.027210         0.129063
 C        -0.210001         2.499332        -0.297890
 C        -1.021686         3.745235         0.374730
 C        -2.265315         3.031755         0.968239
 C        -2.299964         1.465039         0.570548
 H        -3.479003         0.888780         3.050750
 H         0.202344         1.988805         2.473831
 H        -0.452401         0.490336         2.553035
 H         0.546174         0.216175        -0.389693
 H         0.870750         2.611895        -0.253110
 H        -0.600455         2.379053        -1.382959
 H        -0.310849         4.058962         1.238424
 H        -1.362525         4.433306        -0.390203
 H        -3.240019         3.409203         1.024676
 H        -3.130898         0.775813         0.384107
