19
Iteration:   421charge 0 multiplicity 1
 O        -3.330718         1.867736         2.810354
 C        -2.190375         1.992433         2.017922
 C        -0.715529         1.493331         2.145352
 C        -0.652559         1.287541         0.557437
 O        -0.336748         0.013442         0.025197
 C        -0.057874         2.527590        -0.257806
 C        -0.989401         3.630447         0.408322
 C        -2.334188         2.942405         0.914171
 C        -2.194089         1.399276         0.583239
 H        -3.036745         1.786800         3.756626
 H         0.131387         2.033556         2.579474
 H        -0.749236         0.459933         2.673791
 H         0.480176         0.119320        -0.505505
 H         0.997995         2.754398         0.067675
 H        -0.169346         2.293641        -1.336158
 H        -0.468347         4.310760         1.032183
 H        -1.350125         4.430426        -0.278929
 H        -3.285426         3.417337         0.649536
 H        -2.856685         0.893489        -0.071571
