19
Iteration:  1792
 O        -3.182264         2.051269         3.017529
 C        -2.211479         1.893268         2.000650
 C        -0.783376         1.252203         2.158166
 C        -0.706018         1.226326         0.576395
 O        -0.157379         0.120824        -0.083552
 C        -0.150954         2.512025        -0.232685
 C        -1.186186         3.739241         0.206037
 C        -2.208871         2.933716         0.921334
 C        -2.206260         1.458671         0.553844
 H        -3.428845         1.177122         3.384259
 H        -0.033874         1.857905         2.660483
 H        -0.621075         0.160857         2.516444
 H         0.144941        -0.449019         0.611819
 H         0.810916         2.920973         0.197867
 H        -0.063120         2.088993        -1.247448
 H        -0.620608         4.512293         0.773969
 H        -1.684190         4.155024        -0.754100
 H        -3.181992         3.334346         1.187367
 H        -3.029368         1.192625        -0.122662
