19
Iteration:  1538
 O        -3.132096         1.953735         3.020831
 C        -2.147508         1.943989         2.007617
 C        -0.783552         1.343855         2.050072
 C        -0.715033         1.279984         0.497713
 O        -0.258700        -0.014979         0.016967
 C        -0.090032         2.535970        -0.022596
 C        -1.136249         3.762701         0.233401
 C        -2.335730         2.897580         0.854981
 C        -2.282453         1.494962         0.500777
 H        -2.772222         1.491369         3.779405
 H         0.104344         1.870282         2.458031
 H        -0.860355         0.337129         2.533859
 H         0.661231         0.161870        -0.345396
 H         0.961242         2.423203         0.355796
 H        -0.061665         2.399083        -1.114994
 H        -0.694838         4.566346         0.859156
 H        -1.410166         4.171118        -0.782057
 H        -3.300781         3.291673         0.588184
 H        -3.076236         1.040242        -0.035847
