19
Iteration:  2520
 O        -3.039626         2.132113         2.991336
 C        -2.071146         1.942637         2.011901
 C        -0.659068         1.127254         2.067508
 C        -0.768862         1.191764         0.543820
 O        -0.100885         0.036454        -0.063533
 C        -0.206838         2.563137        -0.076515
 C        -1.272597         3.781243         0.194246
 C        -2.319114         2.932800         0.902689
 C        -2.296777         1.507702         0.612405
 H        -3.314514         1.224969         3.277992
 H         0.385562         1.520772         2.436661
 H        -0.869301         0.064745         2.273948
 H        -0.937346        -0.495155        -0.251731
 H         0.818704         2.762795         0.245226
 H        -0.206511         2.544077        -1.203091
 H        -0.747643         4.493663         0.841526
 H        -1.745742         4.181169        -0.700498
 H        -3.353352         3.323180         1.117215
 H        -3.214753         1.016415         0.407059
