19
Iteration:  4969
 O        -3.122272         1.973968         2.989200
 C        -2.217526         1.952397         1.967901
 C        -0.741340         1.432834         2.118129
 C        -0.657020         1.266445         0.579396
 O        -0.164475         0.076654         0.044486
 C        -0.209818         2.562889        -0.286034
 C        -1.018128         3.675404         0.473064
 C        -2.317864         2.855011         0.880530
 C        -2.272868         1.348880         0.500577
 H        -3.495049         1.092971         2.980864
 H         0.033848         2.116633         2.567460
 H        -0.833800         0.392179         2.518632
 H        -0.496595         0.162595        -0.879821
 H         0.869287         2.837411        -0.401517
 H        -0.813466         2.426058        -1.278044
 H        -0.691933         4.002635         1.445699
 H        -1.226290         4.498892        -0.247897
 H        -3.275299         3.398110         0.691375
 H        -2.838951         1.017432        -0.365158
