19
Iteration:  1235charge 0 multiplicity 1
 O        -3.186070         1.947782         3.002076
 C        -2.186112         1.969181         2.015202
 C        -0.726680         1.417099         2.149933
 C        -0.755599         1.240703         0.487387
 O        -0.116082         0.046441        -0.116101
 C        -0.094068         2.460565        -0.111907
 C        -1.068166         3.625512         0.247681
 C        -2.322541         3.042793         0.913306
 C        -2.337279         1.490045         0.589422
 H        -3.114722         1.201890         3.578632
 H        -0.029153         1.862756         2.794856
 H        -1.056332         0.365182         2.379949
 H        -0.570937        -0.770904         0.030482
 H         0.893017         2.815905         0.239570
 H         0.086826         2.454744        -1.190358
 H        -0.496490         4.371063         0.853531
 H        -1.373209         4.235193        -0.648875
 H        -3.234955         3.595241         0.730865
 H        -2.961905         0.897385        -0.077080
