19
Iteration:  2063
 O        -3.135682         1.749274         2.947096
 C        -2.108709         1.992920         2.015384
 C        -0.584355         1.430379         1.992720
 C        -0.777798         1.277186         0.481028
 O        -0.211936         0.023355         0.194445
 C        -0.220426         2.509542        -0.278143
 C        -1.064221         3.686166         0.394451
 C        -2.441830         3.016401         0.818606
 C        -2.241258         1.492889         0.580010
 H        -3.029261         2.600294         3.452278
 H         0.160156         2.097768         2.510885
 H        -0.604232         0.537450         2.565208
 H        -0.469042        -0.224728        -0.726917
 H         0.862977         2.352728        -0.155132
 H        -0.530653         2.290229        -1.314620
 H        -0.485918         4.247158         1.160375
 H        -1.417279         4.336248        -0.399149
 H        -3.368762         3.608824         0.854036
 H        -2.871971         0.798309         0.107436
