19
Iteration:   446
 O        -3.252973         1.887600         2.965909
 C        -2.235416         1.819675         1.982300
 C        -0.828051         1.329307         2.125686
 C        -0.747774         1.243069         0.609026
 O        -0.080741         0.030683         0.081346
 C        -0.160156         2.498822        -0.156979
 C        -0.933891         3.701087         0.319894
 C        -2.284757         3.015035         0.774870
 C        -2.344352         1.552546         0.465089
 H        -2.878453         2.281696         3.763510
 H        -0.099159         1.976143         2.746309
 H        -0.728610         0.280014         2.538610
 H         0.329308         0.460980        -0.712116
 H         0.889721         2.540771        -0.026638
 H        -0.453492         2.319641        -1.195859
 H        -0.517382         4.424060         1.029326
 H        -1.194386         4.449743        -0.489411
 H        -3.167583         3.646112         0.645184
 H        -3.013090         0.883753        -0.128132
