19
Iteration:   563
 O        -3.112714         1.789538         3.010585
 C        -2.228407         1.962164         1.950423
 C        -0.843330         1.384184         2.090890
 C        -0.774372         1.183906         0.416918
 O        -0.146362         0.014383         0.205082
 C        -0.089888         2.499952        -0.204283
 C        -1.005413         3.751664         0.333264
 C        -2.257896         3.031001         0.932505
 C        -2.303908         1.590363         0.470108
 H        -3.937501         1.507016         2.506029
 H        -0.078193         1.821588         2.677527
 H        -1.125189         0.338932         2.532208
 H        -0.029323        -0.240251        -0.725793
 H         1.013885         2.597465         0.108551
 H        -0.194733         2.527795        -1.346995
 H        -0.472635         4.447016         1.018590
 H        -1.244334         4.362992        -0.595645
 H        -3.131071         3.685060         0.918119
 H        -3.190360         1.126756        -0.045243
