19
Iteration:  4212charge 0 multiplicity 1
 O        -3.082312         1.905268         3.112121
 C        -2.199483         1.900416         1.983204
 C        -0.745477         1.375105         1.984595
 C        -0.763985         1.271781         0.397874
 O        -0.232957         0.073669         0.013063
 C        -0.072079         2.554938        -0.073487
 C        -1.122486         3.637097         0.367779
 C        -2.307393         2.918335         0.881211
 C        -2.296744         1.420699         0.469296
 H        -3.850810         2.454894         2.886212
 H        -0.167979         2.191317         2.589869
 H        -0.528961         0.436297         2.431849
 H         0.751779        -0.005965        -0.077351
 H         0.916160         2.573972         0.288488
 H        -0.049150         2.352048        -1.185804
 H        -0.725381         4.330275         1.112210
 H        -1.455123         4.304163        -0.428410
 H        -3.253717         3.491155         0.868016
 H        -3.081484         1.139233        -0.247510
