19
Iteration:  1963charge 0 multiplicity 1
 O        -2.947549         2.051759         3.111400
 C        -2.149477         1.905423         1.928077
 C        -0.770398         1.383086         2.047656
 C        -0.649241         1.271712         0.500405
 O        -0.309037        -0.037512        -0.007194
 C        -0.127464         2.562147        -0.038217
 C        -1.248142         3.673711         0.313901
 C        -2.362154         2.904322         0.774448
 C        -2.270186         1.481809         0.435475
 H        -3.343916         1.222874         3.271075
 H         0.101985         1.743003         2.611646
 H        -0.801610         0.378198         2.339821
 H         0.444047        -0.320095         0.587742
 H         0.755401         2.866105         0.503676
 H         0.189183         2.552477        -1.100527
 H        -1.042737         4.477241         1.036086
 H        -1.568021         4.239627        -0.535983
 H        -3.329019         3.392201         0.704366
 H        -2.954314         0.917891        -0.266698
