19
Iteration:  2142
 O        -3.015429         2.054904         2.970345
 C        -2.073451         1.955245         2.030363
 C        -0.698822         1.293255         2.154735
 C        -0.757572         1.247001         0.460777
 O        -0.276652         0.019164        -0.175643
 C        -0.100455         2.571789        -0.066185
 C        -1.267335         3.774683         0.236783
 C        -2.346759         2.916921         0.871402
 C        -2.281441         1.418038         0.676196
 H        -3.488878         1.208689         2.977387
 H         0.144745         1.629652         2.767786
 H        -1.069629         0.275351         2.403518
 H         0.450015        -0.322463         0.415413
 H         0.920630         2.485018         0.404462
 H         0.119073         2.450112        -1.113854
 H        -0.727999         4.558586         0.728805
 H        -1.526217         4.083560        -0.825109
 H        -3.260302         3.480706         1.047048
 H        -3.157459         0.733645         0.464477
