19
Iteration:  1662
 O        -3.139530         1.756817         3.001857
 C        -2.216266         2.017684         1.967001
 C        -0.739201         1.535237         2.131278
 C        -0.703997         1.224067         0.483254
 O        -0.171737        -0.014720         0.120095
 C        -0.224959         2.474784        -0.358030
 C        -0.944472         3.583120         0.361780
 C        -2.340318         3.084856         0.901103
 C        -2.357152         1.626175         0.538269
 H        -3.776937         1.052270         2.882537
 H         0.055621         2.126101         2.492343
 H        -0.917733         0.533488         2.724184
 H         0.821948        -0.022908         0.151598
 H         0.897957         2.502061        -0.375131
 H        -0.472549         2.367459        -1.411701
 H        -0.533352         4.053213         1.229843
 H        -1.108114         4.437696        -0.313902
 H        -3.312963         3.511218         0.713762
 H        -2.938993         0.894823         0.026349
