19
Iteration:  4898charge 0 multiplicity 1
 O        -3.040891         1.850554         3.077676
 C        -2.164865         1.963123         1.956867
 C        -0.754104         1.338910         2.137236
 C        -0.720481         1.252595         0.609325
 O        -0.300173        -0.008629         0.038324
 C        -0.038920         2.643182        -0.048273
 C        -1.172539         3.734573         0.200569
 C        -2.374873         2.953959         0.778179
 C        -2.225760         1.472304         0.417313
 H        -3.079148         0.872736         3.274235
 H         0.071652         1.991503         2.693180
 H        -1.044341         0.306211         2.553157
 H        -0.268090         0.325564        -0.891908
 H         0.901758         2.813755         0.536125
 H         0.175517         2.392927        -1.088789
 H        -0.751449         4.639106         0.817318
 H        -1.503187         4.263407        -0.704624
 H        -3.290693         3.394587         1.117466
 H        -2.915790         1.102657        -0.408298
