19
Iteration:  3432charge 0 multiplicity 1
 O        -2.963274         1.994264         3.131452
 C        -2.198769         1.787895         1.910077
 C        -0.806888         1.270655         2.138367
 C        -0.732866         1.278031         0.515987
 O        -0.207942         0.026445         0.036498
 C        -0.089717         2.646630        -0.040660
 C        -1.226238         3.743376         0.158084
 C        -2.355015         2.833886         0.816645
 C        -2.261165         1.439063         0.485968
 H        -3.070810         3.013327         3.184030
 H        -0.025201         1.900975         2.573726
 H        -0.825086         0.225345         2.584481
 H        -0.056145         0.201828        -0.887853
 H         0.753226         2.813812         0.639186
 H         0.219778         2.624431        -1.120808
 H        -0.781623         4.477589         0.827925
 H        -1.623448         4.147901        -0.787705
 H        -3.353931         3.304473         0.897182
 H        -3.025574         0.834024        -0.041552
