19
Iteration:  2926
 O        -3.085411         1.750445         2.992447
 C        -2.154637         2.082344         1.974093
 C        -0.736652         1.412516         2.080761
 C        -0.849203         1.256867         0.546265
 O        -0.085285         0.167571         0.073955
 C        -0.249723         2.434117        -0.227709
 C        -1.065606         3.617805         0.274482
 C        -2.278919         2.974107         0.841296
 C        -2.358656         1.557416         0.561681
 H        -2.578000         1.233218         3.724154
 H         0.064048         2.029378         2.531473
 H        -0.771215         0.505118         2.655979
 H        -0.617527        -0.350679        -0.572689
 H         0.841613         2.576122        -0.013315
 H        -0.311884         2.163648        -1.299498
 H        -0.632985         4.218214         1.130556
 H        -1.124071         4.453354        -0.465454
 H        -3.278080         3.530665         0.792991
 H        -3.118038         0.815294         0.205114
