19
Iteration:  1299
 O        -3.172543         1.811164         3.008923
 C        -2.163445         1.999913         1.974032
 C        -0.656345         1.522799         2.034107
 C        -0.737249         1.224915         0.515065
 O        -0.289630        -0.061573         0.157850
 C        -0.132538         2.561754        -0.204666
 C        -1.021425         3.700616         0.390199
 C        -2.311574         3.041162         0.811653
 C        -2.263353         1.480690         0.479316
 H        -3.301931         0.838380         3.194758
 H         0.139937         2.158740         2.390055
 H        -0.587580         0.588947         2.752786
 H        -0.699244        -0.315478        -0.700179
 H         0.987901         2.788848        -0.199215
 H        -0.443399         2.330419        -1.225633
 H        -0.431670         4.134155         1.205271
 H        -1.154048         4.547940        -0.319801
 H        -3.245207         3.574675         0.614446
 H        -3.019593         0.857574        -0.006785
