19
Iteration:   640charge 0 multiplicity 1
 O        -3.283256         1.963453         2.820638
 C        -2.114740         1.909475         1.985004
 C        -0.657944         1.432736         2.167407
 C        -0.700378         1.246920         0.573262
 O        -0.239872         0.039241        -0.080161
 C        -0.085115         2.477074        -0.066877
 C        -1.050898         3.752173         0.398075
 C        -2.304650         2.893441         0.860019
 C        -2.298035         1.481390         0.510173
 H        -3.036634         1.461950         3.597108
 H         0.026928         2.056191         2.687767
 H        -0.661383         0.381753         2.675611
 H        -0.745448         0.004002        -0.941333
 H         0.964158         2.365346         0.345469
 H        -0.010455         2.258415        -1.165844
 H        -0.568268         4.152484         1.268426
 H        -1.258158         4.438635        -0.475750
 H        -3.172216         3.472693         1.062820
 H        -3.209603         0.930349         0.325777
