19
Iteration:  3783charge 0 multiplicity 1
 O        -3.004043         1.875715         3.023675
 C        -2.131452         1.985805         1.941406
 C        -0.751334         1.315246         2.096470
 C        -0.700360         1.225510         0.620731
 O        -0.200139         0.079616        -0.109441
 C        -0.093405         2.564990        -0.008489
 C        -1.218647         3.700962         0.205500
 C        -2.384469         2.933228         0.784879
 C        -2.324087         1.445359         0.556269
 H        -3.095839         2.762988         3.285844
 H         0.042349         1.797187         2.820539
 H        -1.080527         0.293420         2.372885
 H        -0.084305        -0.547953         0.624845
 H         0.797660         2.802637         0.550653
 H         0.157556         2.497077        -1.061528
 H        -0.768848         4.545014         0.775897
 H        -1.650437         4.153605        -0.731221
 H        -3.378155         3.496421         0.692834
 H        -3.002244         0.736721         0.035423
