19
Iteration:  1503charge 0 multiplicity 1
 O        -3.058605         1.941052         2.927089
 C        -2.161010         1.917493         1.941024
 C        -0.759483         1.563965         2.093357
 C        -0.734260         1.281642         0.499153
 O        -0.330422        -0.001650         0.076387
 C        -0.137637         2.508673        -0.204806
 C        -1.016952         3.675030         0.508629
 C        -2.370464         2.869670         0.808753
 C        -2.247071         1.414171         0.472019
 H        -3.145731         1.248795         3.591542
 H        -0.158257         2.321479         2.689669
 H        -0.768029         0.660955         2.622011
 H         0.436908         0.118283        -0.551119
 H         0.937433         2.661917        -0.122287
 H        -0.415760         2.320498        -1.271575
 H        -0.440909         4.080531         1.392750
 H        -1.204645         4.520472        -0.173210
 H        -3.372450         3.262843         0.652853
 H        -3.104884         0.884654         0.056003
