19
Iteration:  1256
 O        -3.116929         1.870350         3.006970
 C        -2.201850         1.911512         1.912678
 C        -0.733183         1.430320         2.042336
 C        -0.763020         1.251143         0.524847
 O        -0.275086         0.034294         0.084174
 C        -0.070570         2.529845        -0.049170
 C        -1.051449         3.700622         0.258835
 C        -2.265524         2.949533         0.876258
 C        -2.303609         1.542789         0.451157
 H        -2.694316         1.115550         3.566790
 H        -0.081302         2.233541         2.238805
 H        -0.432173         0.415566         2.604589
 H        -1.063918        -0.554379        -0.049976
 H         0.995656         2.765353         0.324385
 H         0.151259         2.481947        -1.133726
 H        -0.798459         4.544052         0.922568
 H        -1.337452         4.225884        -0.693513
 H        -3.265221         3.353708         0.997499
 H        -3.111895         1.036656        -0.076567
