19
Iteration:  4420
 O        -3.091221         1.758454         3.029984
 C        -2.230498         1.893209         1.925332
 C        -0.774235         1.422738         2.147056
 C        -0.669457         1.311700         0.609153
 O        -0.361827         0.063722         0.033093
 C        -0.161633         2.530295        -0.266765
 C        -1.030632         3.792287         0.306989
 C        -2.333612         2.962138         0.850940
 C        -2.194007         1.548643         0.482282
 H        -2.958279         0.880625         3.518774
 H        -0.070171         2.127426         2.677460
 H        -0.785151         0.507939         2.667626
 H         0.428708        -0.320168         0.387442
 H         0.922977         2.662009        -0.099620
 H        -0.356335         2.142442        -1.374895
 H        -0.416306         4.366064         1.040031
 H        -1.264996         4.398112        -0.590358
 H        -3.352299         3.455160         0.731992
 H        -2.759134         0.976524        -0.265456
