19
Iteration:  4730
 O        -3.116059         1.956535         3.069434
 C        -2.167282         1.895244         1.988698
 C        -0.776306         1.246075         2.167378
 C        -0.672086         1.312685         0.575237
 O        -0.205079         0.135270        -0.016668
 C        -0.109811         2.591026        -0.102325
 C        -1.163140         3.660371         0.137748
 C        -2.236931         2.897807         0.865634
 C        -2.245485         1.476116         0.544840
 H        -3.644940         1.127708         3.310670
 H        -0.034989         1.769832         2.847964
 H        -1.145232         0.111366         2.421725
 H        -0.471716         0.122069        -0.949955
 H         0.859623         2.674554         0.356407
 H         0.096463         2.280532        -1.180614
 H        -0.878766         4.647813         0.719916
 H        -1.546760         4.218610        -0.724838
 H        -3.170573         3.425522         0.690929
 H        -3.042419         1.086407        -0.091955
