19
Iteration:  1914charge 0 multiplicity 1
 O        -3.172236         1.997578         2.960628
 C        -2.104791         2.024785         2.044347
 C        -0.715354         1.416745         2.150258
 C        -0.753413         1.196635         0.527267
 O        -0.170655         0.045240        -0.127434
 C        -0.188796         2.438136        -0.093684
 C        -1.090104         3.622582         0.244123
 C        -2.408060         2.988069         0.921962
 C        -2.262452         1.456859         0.616451
 H        -3.214650         1.022258         3.291008
 H         0.210628         1.859266         2.534973
 H        -0.715882         0.414131         2.708472
 H         0.515887         0.468404        -0.649420
 H         0.898594         2.519772         0.208707
 H        -0.176679         2.281861        -1.177814
 H        -0.396667         4.293049         0.767994
 H        -1.420687         4.273990        -0.606986
 H        -3.414029         3.420815         0.812144
 H        -3.110129         0.920032         0.213939
