19
Iteration:  4267
 O        -3.171151         1.613921         2.922930
 C        -2.199655         1.888839         1.987873
 C        -0.662038         1.508858         2.103366
 C        -0.734772         1.366723         0.570330
 O        -0.391149         0.067847         0.090564
 C        -0.183830         2.581010        -0.282855
 C        -0.974583         3.732424         0.269250
 C        -2.299894         2.979751         0.896880
 C        -2.193290         1.499046         0.552189
 H        -3.126186         2.288844         3.705547
 H         0.088107         2.250791         2.629621
 H        -0.589728         0.479778         2.342819
 H         0.314016        -0.385932         0.617420
 H         0.851835         2.615380        -0.097587
 H        -0.375890         2.208509        -1.312252
 H        -0.344260         4.138804         1.024905
 H        -1.385846         4.397922        -0.445296
 H        -3.264620         3.418033         0.682280
 H        -2.784134         0.873096        -0.168448
