19
Iteration:   876charge 0 multiplicity 1
 O        -3.227670         2.047251         3.022562
 C        -2.195234         2.061722         2.026201
 C        -0.647460         1.302593         2.071597
 C        -0.724408         1.192472         0.553460
 O        -0.046938         0.054576        -0.067047
 C        -0.148170         2.437767        -0.119097
 C        -1.130372         3.700053         0.364143
 C        -2.324105         2.922408         0.877391
 C        -2.310508         1.471322         0.540799
 H        -3.942545         1.470240         2.657297
 H         0.113496         1.959684         2.613749
 H        -0.732502         0.299342         2.455084
 H        -0.641217        -0.308602        -0.746584
 H         0.972993         2.627545        -0.026774
 H        -0.064202         2.327357        -1.269075
 H        -0.566782         4.089821         1.273114
 H        -1.407110         4.395466        -0.451948
 H        -3.245371         3.492995         0.901459
 H        -2.903231         0.844094        -0.098275
