19
Iteration:  3802
 O        -3.143223         1.949457         3.089907
 C        -2.141052         1.931683         2.021273
 C        -0.793240         1.317756         2.158946
 C        -0.699717         1.290572         0.535735
 O        -0.299149         0.143940        -0.172765
 C        -0.051465         2.591896        -0.008349
 C        -1.143205         3.594983         0.133837
 C        -2.324840         2.876412         0.819339
 C        -2.196472         1.380729         0.575437
 H        -3.215046         2.814676         3.435796
 H        -0.077353         1.946676         2.554272
 H        -1.068328         0.249919         2.511188
 H         0.609694        -0.050308         0.075881
 H         0.951888         2.735333         0.537567
 H         0.150342         2.450010        -1.094939
 H        -0.968383         4.499081         0.808543
 H        -1.329181         3.966241        -0.905498
 H        -3.394977         3.253378         0.833751
 H        -2.964410         0.709680         0.093342
