19
Iteration:    32charge 0 multiplicity 1
 O        -3.008307         1.839088         3.100614
 C        -2.334754         1.932681         1.897193
 C        -0.786645         1.551749         2.018035
 C        -0.720034         1.237835         0.520446
 O        -0.031881         0.100441         0.183095
 C        -0.206061         2.476330        -0.185516
 C        -1.016200         3.634387         0.322427
 C        -2.433731         2.952531         0.655763
 C        -2.315146         1.452526         0.524421
 H        -4.004154         1.632907         3.136749
 H        -0.083969         2.256804         2.253802
 H        -0.652722         0.775597         2.738813
 H         0.025753        -0.546972         0.926276
 H         0.890371         2.605802         0.146948
 H        -0.404651         2.401703        -1.341873
 H        -0.571172         4.110306         1.184432
 H        -1.059710         4.305753        -0.536675
 H        -3.371519         3.429765         0.491696
 H        -2.945856         1.018640        -0.208092
