19
Iteration:  2710charge 0 multiplicity 1
 O        -2.933209         1.963018         3.133329
 C        -2.180823         1.916375         2.031625
 C        -0.718065         1.198190         2.055920
 C        -0.685638         1.280495         0.504441
 O        -0.236008         0.031752         0.028969
 C        -0.178567         2.581733        -0.096293
 C        -1.176191         3.693096         0.269650
 C        -2.326004         2.972680         0.876626
 C        -2.247650         1.532273         0.395423
 H        -3.880860         1.960404         2.931331
 H         0.123001         1.724208         2.650673
 H        -0.955673         0.166670         2.474279
 H        -0.790764        -0.293726        -0.680895
 H         0.860423         2.936622         0.078178
 H        -0.346276         2.478191        -1.173119
 H        -0.668372         4.487831         0.865781
 H        -1.698200         4.121235        -0.635067
 H        -3.331948         3.367429         0.918586
 H        -3.011272         0.917624        -0.102075
