19
Iteration:  4833charge 0 multiplicity 1
 O        -3.175532         1.903907         3.009637
 C        -2.203114         1.900689         1.918888
 C        -0.765230         1.449992         2.065147
 C        -0.698102         1.261049         0.530926
 O        -0.070371         0.072678         0.049706
 C        -0.276948         2.493718        -0.242450
 C        -0.983893         3.733056         0.474014
 C        -2.310675         2.960899         0.839953
 C        -2.278896         1.474225         0.517767
 H        -3.169867         1.107653         3.485033
 H        -0.023450         1.963828         2.770742
 H        -0.853035         0.395337         2.303215
 H        -0.593938        -0.319328        -0.648198
 H         0.833790         2.638602        -0.263835
 H        -0.612190         2.317137        -1.257900
 H        -0.460238         4.158228         1.325899
 H        -1.208627         4.378858        -0.365360
 H        -3.275081         3.484387         0.890009
 H        -3.073346         0.853310        -0.074285
