19
Iteration:  4772charge 0 multiplicity 1
 O        -3.108535         1.822296         2.914839
 C        -2.139011         1.974778         1.990565
 C        -0.695186         1.489038         2.028360
 C        -0.765971         1.189200         0.501150
 O        -0.257399        -0.021516         0.093882
 C        -0.133212         2.562650        -0.125958
 C        -1.095999         3.670927         0.358053
 C        -2.300160         2.998642         0.912688
 C        -2.325405         1.519527         0.524324
 H        -3.271213         0.898096         2.967489
 H         0.095017         2.216254         2.305685
 H        -0.480035         0.574950         2.739255
 H         0.107059         0.096891        -0.777048
 H         0.815877         2.848118         0.371524
 H         0.088346         2.485229        -1.218541
 H        -0.556711         4.422906         1.006553
 H        -1.464954         4.337071        -0.467014
 H        -3.326414         3.292180         0.803032
 H        -3.275426         1.034330         0.225794
