19
Iteration:  1456charge 0 multiplicity 1
 O        -3.141109         1.836136         2.918167
 C        -2.128106         2.020366         1.997839
 C        -0.774902         1.410264         2.126226
 C        -0.742349         1.340391         0.515474
 O        -0.231552         0.056034         0.076771
 C        -0.210428         2.497472        -0.253545
 C        -1.047180         3.621295         0.234113
 C        -2.215126         2.986143         0.930530
 C        -2.341684         1.476150         0.655190
 H        -3.502858         1.004923         2.734590
 H         0.076609         1.805499         2.711716
 H        -0.885277         0.342582         2.358325
 H         0.704808         0.157228         0.228305
 H         0.861647         2.459857        -0.180459
 H        -0.517244         2.407750        -1.319950
 H        -0.438594         4.194868         0.984248
 H        -1.218840         4.269664        -0.617383
 H        -3.058106         3.707663         1.046461
 H        -3.126255         1.033076         0.031331
