19
Iteration:  2941
 O        -3.113948         1.768369         3.018316
 C        -2.176422         1.909911         2.004305
 C        -0.746481         1.539736         2.137298
 C        -0.698812         1.305606         0.542060
 O        -0.188923         0.039679         0.095315
 C        -0.203886         2.506172        -0.305028
 C        -1.033709         3.708526         0.261467
 C        -2.355405         3.035782         0.875449
 C        -2.247762         1.462781         0.581408
 H        -2.956881         0.891539         3.363581
 H        -0.041882         2.242618         2.603908
 H        -0.754244         0.442996         2.443504
 H        -0.811442        -0.276443        -0.623508
 H         0.891829         2.593418        -0.283659
 H        -0.497022         2.325244        -1.383346
 H        -0.354682         4.141235         0.977873
 H        -1.339980         4.365593        -0.577598
 H        -3.293779         3.559905         0.869224
 H        -3.021633         1.044892         0.000390
