19
Iteration:   536charge 0 multiplicity 1
 O        -3.229257         1.797292         2.961127
 C        -2.224652         1.925606         1.985871
 C        -0.663494         1.481218         2.125010
 C        -0.667870         1.232439         0.607684
 O        -0.274561         0.042367        -0.004184
 C        -0.045788         2.456476        -0.065055
 C        -1.046433         3.691667         0.270054
 C        -2.297853         2.969356         0.812847
 C        -2.257796         1.526803         0.594286
 H        -4.037089         2.017808         2.411220
 H         0.193553         2.011635         2.681408
 H        -0.776117         0.540750         2.563221
 H        -0.475979         0.212128        -0.946442
 H         0.956162         2.711014         0.173543
 H        -0.035260         2.225856        -1.102645
 H        -0.584194         4.364586         1.025389
 H        -1.094963         4.368682        -0.555087
 H        -3.188028         3.588040         0.742896
 H        -3.029474         0.992577         0.098807
