19
Iteration:  3223
 O        -2.942244         1.983266         3.038852
 C        -2.152778         1.940593         1.966929
 C        -0.749288         1.298280         1.950933
 C        -0.780765         1.249058         0.486512
 O        -0.125139         0.032391         0.083215
 C        -0.213141         2.496201        -0.062897
 C        -1.189948         3.720049         0.229638
 C        -2.349888         2.927365         0.849876
 C        -2.362617         1.385944         0.587617
 H        -3.405974         2.819152         3.171599
 H         0.007982         1.882985         2.474383
 H        -0.908663         0.312914         2.516465
 H         0.697993         0.192443        -0.441260
 H         0.700033         2.740395         0.496697
 H        -0.034033         2.384403        -1.141301
 H        -0.911105         4.332349         1.126885
 H        -1.502811         4.373535        -0.622516
 H        -3.372260         3.364779         0.816474
 H        -3.185675         1.007020        -0.088160
