19
Iteration:  3260charge 0 multiplicity 1
 O        -3.012864         1.915343         3.191797
 C        -2.152262         2.006681         1.977097
 C        -0.797905         1.316952         2.104976
 C        -0.658058         1.273990         0.522396
 O        -0.212686         0.052644         0.017177
 C        -0.121283         2.530092        -0.092101
 C        -1.236093         3.653007         0.140478
 C        -2.352608         2.914436         0.824289
 C        -2.244096         1.486582         0.540278
 H        -3.810345         2.263860         2.873497
 H         0.072541         1.744932         2.602720
 H        -0.948663         0.287768         2.417912
 H         0.165555         0.062902        -0.904536
 H         0.869749         2.779278         0.280469
 H         0.025281         2.127391        -1.099333
 H        -0.715965         4.410463         0.778227
 H        -1.562576         4.206367        -0.770754
 H        -3.395687         3.291946         0.818513
 H        -2.917395         1.034532        -0.171854
