19
Iteration:  2168
 O        -3.157186         1.979702         3.035869
 C        -2.173083         1.959216         2.024829
 C        -0.587074         1.324791         2.111570
 C        -0.759406         1.245372         0.521271
 O        -0.260545         0.134806        -0.119382
 C        -0.150277         2.508470        -0.141351
 C        -1.178667         3.638976         0.262664
 C        -2.290692         2.921552         0.914321
 C        -2.287280         1.474771         0.522583
 H        -2.850315         1.415359         3.716121
 H         0.270379         1.913669         2.327313
 H        -0.655327         0.403037         2.704576
 H        -0.282613        -0.646097         0.505046
 H         0.888111         2.610560         0.133390
 H        -0.103718         2.334038        -1.240038
 H        -0.573992         4.393750         0.801823
 H        -1.435244         4.151702        -0.668689
 H        -3.115072         3.637202         0.990862
 H        -2.927673         0.964434        -0.167833
