19
Iteration:   960charge 0 multiplicity 1
 O        -3.165235         1.695016         2.907728
 C        -2.140443         1.944049         1.998248
 C        -0.670283         1.508630         2.148008
 C        -0.746978         1.216612         0.586501
 O        -0.419621         0.041565         0.038864
 C        -0.100847         2.560619        -0.201852
 C        -0.963628         3.671112         0.244540
 C        -2.352832         3.010934         0.828795
 C        -2.285785         1.516173         0.506381
 H        -2.861295         2.117591         3.727474
 H         0.026571         2.314526         2.494415
 H        -0.543720         0.682542         2.885616
 H         0.502086        -0.238811         0.230640
 H         0.811568         2.733443         0.304366
 H        -0.126647         2.447962        -1.260292
 H        -0.375251         4.166694         1.021111
 H        -1.139507         4.365155        -0.621462
 H        -3.324165         3.466001         1.002603
 H        -3.076561         0.891536         0.094603
