19
Iteration:  3343charge 0 multiplicity 1
 O        -2.989637         1.739647         3.082122
 C        -2.237692         1.865075         1.936735
 C        -0.739222         1.518390         2.146217
 C        -0.704529         1.389074         0.549201
 O        -0.217624        -0.031713         0.253226
 C        -0.239078         2.618936        -0.448990
 C        -0.998875         3.674005         0.323761
 C        -2.338896         2.989268         0.835827
 C        -2.307672         1.473567         0.474503
 H        -3.952764         2.065022         3.011439
 H        -0.015740         2.100137         2.710236
 H        -0.571852         0.431810         2.516242
 H        -0.352190        -0.323804        -0.645929
 H         0.862416         2.644694        -0.414924
 H        -0.657890         2.344455        -1.430149
 H        -0.320565         3.938761         1.164893
 H        -1.308353         4.506104        -0.288070
 H        -3.329011         3.515935         0.863776
 H        -2.818238         0.984428        -0.283533
