19
Iteration:  2912charge 0 multiplicity 1
 O        -3.074089         1.826065         3.021689
 C        -2.124685         1.987584         1.999693
 C        -0.748214         1.408998         2.016300
 C        -0.786884         1.209968         0.498806
 O        -0.033916         0.115342         0.056091
 C        -0.222181         2.485506        -0.112779
 C        -1.040273         3.673847         0.320684
 C        -2.403616         3.024147         0.816897
 C        -2.415043         1.448642         0.495256
 H        -2.658001         2.014118         3.850421
 H         0.210572         1.804863         2.371516
 H        -0.822063         0.385539         2.416732
 H        -0.510266        -0.373630        -0.599807
 H         0.825801         2.480233         0.157747
 H        -0.359811         2.460361        -1.169431
 H        -0.457012         4.300699         1.034348
 H        -1.447389         4.263078        -0.540530
 H        -3.304991         3.581055         0.797008
 H        -3.432049         1.036393         0.381474
