19
Iteration:  2285
 O        -2.982349         1.937582         3.071289
 C        -2.138414         2.038940         2.033040
 C        -0.653453         1.400413         2.202644
 C        -0.802804         1.262182         0.580252
 O        -0.266020         0.129560        -0.229278
 C        -0.166727         2.449502        -0.090091
 C        -1.109517         3.645191         0.132778
 C        -2.382339         2.939916         0.858737
 C        -2.349301         1.416091         0.648349
 H        -3.336235         1.005404         2.992615
 H         0.293988         1.842248         2.578472
 H        -0.923307         0.452168         2.798255
 H         0.628326        -0.057474         0.052180
 H         0.907337         2.596871         0.149940
 H        -0.087463         2.162545        -1.133507
 H        -0.866510         4.487590         0.728069
 H        -1.538785         4.049461        -0.796900
 H        -3.293078         3.551575         0.903263
 H        -3.159917         0.896717         0.227051
