19
Iteration:  3456charge 0 multiplicity 1
 O        -3.056584         1.883687         3.059466
 C        -2.097905         2.061519         1.954140
 C        -0.755615         1.316194         2.011263
 C        -0.817145         1.226504         0.476355
 O        -0.039576         0.053470         0.046383
 C        -0.088356         2.563026        -0.019678
 C        -1.200372         3.586860         0.228947
 C        -2.424862         2.947365         0.861506
 C        -2.344792         1.492625         0.574490
 H        -3.195395         2.728961         3.477319
 H         0.165389         1.853258         2.287940
 H        -0.895118         0.352627         2.468576
 H        -0.326238        -0.050015        -0.881617
 H         0.817825         2.460335         0.490219
 H        -0.028956         2.634324        -1.086452
 H        -0.743519         4.376237         0.828734
 H        -1.521593         3.946249        -0.788952
 H        -3.381621         3.377266         0.730108
 H        -3.175217         0.872362         0.106440
