19
Iteration:   504charge 0 multiplicity 1
 O        -3.100673         1.899907         2.999211
 C        -2.216781         1.839796         1.908264
 C        -0.803814         1.437168         2.088540
 C        -0.666082         1.217799         0.567966
 O        -0.270491        -0.038519         0.037321
 C        -0.055360         2.610148        -0.020045
 C        -1.083273         3.724858         0.319624
 C        -2.276902         2.943916         0.805479
 C        -2.251595         1.428063         0.480417
 H        -3.732048         2.648812         2.957774
 H        -0.144901         2.082488         2.758283
 H        -0.847261         0.472021         2.514899
 H        -0.509828         0.093541        -0.886716
 H         0.918369         2.842819         0.424450
 H         0.177293         2.442788        -1.057550
 H        -0.683738         4.323372         1.206512
 H        -1.329127         4.347527        -0.521886
 H        -3.252990         3.442853         0.732589
 H        -2.986351         0.966866        -0.149096
