19
Iteration:  1511
 O        -3.061070         1.951980         2.915837
 C        -2.160797         1.946446         1.884613
 C        -0.755562         1.465856         2.151931
 C        -0.704402         1.322186         0.483947
 O        -0.335781         0.001030         0.087245
 C        -0.123011         2.549336        -0.190937
 C        -1.080571         3.650086         0.439551
 C        -2.386755         2.889756         0.803769
 C        -2.286374         1.429615         0.517885
 H        -2.720006         1.289383         3.514930
 H         0.032712         2.148265         2.566421
 H        -0.712932         0.517979         2.684087
 H         0.452460         0.081122        -0.516124
 H         0.896459         2.463008         0.157693
 H        -0.243659         2.533522        -1.304466
 H        -0.561504         3.886867         1.397150
 H        -1.165481         4.545655        -0.153729
 H        -3.294875         3.537617         0.710760
 H        -2.954111         0.591259         0.162339
