19
Iteration:  2099charge 0 multiplicity 1
 O        -2.901327         1.831048         3.189045
 C        -2.214753         1.919227         1.906643
 C        -0.802479         1.476850         2.118987
 C        -0.804778         1.241238         0.513807
 O        -0.296279         0.031994         0.015463
 C        -0.035084         2.481705        -0.150738
 C        -1.095309         3.667296         0.245949
 C        -2.360509         2.975364         0.889755
 C        -2.308359         1.460551         0.469330
 H        -3.805233         2.283768         3.111058
 H        -0.260106         2.275816         2.552230
 H        -0.747703         0.458390         2.556125
 H         0.437496         0.172925        -0.592483
 H         0.993808         2.645323         0.280845
 H         0.106261         2.534341        -1.223446
 H        -0.943925         4.612827         0.749707
 H        -1.563277         4.045125        -0.724503
 H        -3.341868         3.472953         0.803340
 H        -2.833877         0.891304        -0.334973
