19
Iteration:   657
 O        -3.185502         1.931582         2.882738
 C        -2.182521         1.875293         1.913238
 C        -0.799347         1.294993         2.130193
 C        -0.747810         1.274124         0.535904
 O        -0.259974         0.078428         0.026918
 C        -0.082954         2.589639        -0.043385
 C        -1.027423         3.670984         0.301920
 C        -2.201941         2.998501         0.924050
 C        -2.249008         1.463956         0.546067
 H        -3.166921         1.354431         3.621127
 H         0.009765         1.977249         2.534869
 H        -0.754442         0.298935         2.546916
 H        -0.862448        -0.092676        -0.742315
 H         0.951311         2.799233         0.268535
 H        -0.140725         2.426090        -1.114501
 H        -0.566369         4.472389         0.953396
 H        -1.369987         4.088662        -0.635844
 H        -3.210890         3.455995         0.898254
 H        -2.848662         0.931874        -0.216913
