19
Iteration:  2545
 O        -2.945979         1.923149         3.128192
 C        -2.156030         1.972259         1.993328
 C        -0.804241         1.402136         2.080939
 C        -0.802732         1.212237         0.509908
 O        -0.145768         0.138712        -0.065552
 C        -0.140382         2.436227        -0.170719
 C        -1.133033         3.649063         0.214562
 C        -2.364596         2.996107         0.868314
 C        -2.329330         1.518350         0.565152
 H        -3.065260         0.922703         3.284273
 H        -0.001527         1.995441         2.550798
 H        -0.943348         0.399636         2.453051
 H        -0.698139        -0.682322         0.093725
 H         0.902242         2.524374         0.217328
 H        -0.154969         2.445298        -1.261894
 H        -0.610989         4.299741         0.972330
 H        -1.368231         4.195949        -0.739350
 H        -3.271670         3.609434         1.039861
 H        -3.127150         0.953812         0.012381
