19
Iteration:  3748charge 0 multiplicity 1
 O        -3.102489         1.790017         3.061431
 C        -2.182523         1.882267         1.928193
 C        -0.761735         1.513468         1.992733
 C        -0.735867         1.312897         0.501067
 O        -0.126914         0.059591         0.115260
 C        -0.132089         2.522219        -0.234305
 C        -1.086021         3.644423         0.303073
 C        -2.307505         3.001974         0.897273
 C        -2.333194         1.423737         0.550498
 H        -3.117075         2.597330         3.505543
 H        -0.073896         2.229592         2.509515
 H        -0.772883         0.462058         2.546270
 H        -0.659772        -0.642771        -0.259333
 H         0.946297         2.487421         0.124129
 H        -0.075457         2.422364        -1.324747
 H        -0.794637         4.453347         1.074294
 H        -1.455815         4.213280        -0.607722
 H        -3.322332         3.495918         0.803365
 H        -3.109260         0.949029        -0.094079
