19
Iteration:  1760
 O        -2.954091         2.041541         3.047929
 C        -2.212165         1.960202         1.913099
 C        -0.800052         1.270362         2.045129
 C        -0.744988         1.227706         0.546742
 O        -0.170374         0.080220        -0.019619
 C        -0.018255         2.503310        -0.042454
 C        -1.212811         3.691068         0.273667
 C        -2.468795         2.923729         0.763737
 C        -2.359532         1.474693         0.487721
 H        -2.996580         1.188509         3.479269
 H        -0.047486         1.774838         2.563228
 H        -0.906662         0.174363         2.435189
 H         0.518765        -0.078412         0.700035
 H         0.825584         2.881861         0.604436
 H         0.362248         2.438760        -1.077708
 H        -0.760479         4.335111         1.045328
 H        -1.196366         4.283870        -0.671331
 H        -3.409675         3.441233         0.890453
 H        -3.181216         0.885467         0.078471
