19
Iteration:  2293charge 0 multiplicity 1
 O        -2.952490         1.950835         3.060785
 C        -2.019561         2.037698         2.008773
 C        -0.748344         1.378377         2.191446
 C        -0.797344         1.207510         0.496855
 O        -0.270353         0.115201        -0.204732
 C        -0.137511         2.525865        -0.053501
 C        -1.192200         3.595033         0.144520
 C        -2.391021         2.961384         0.815323
 C        -2.342881         1.468147         0.668380
 H        -3.219670         1.036355         3.253520
 H         0.118440         1.987615         2.604191
 H        -0.894751         0.391629         2.665253
 H         0.565493        -0.172716         0.189274
 H         0.844557         2.538127         0.492480
 H        -0.076434         2.273068        -1.132632
 H        -0.792489         4.403540         0.859470
 H        -1.423738         4.173767        -0.790764
 H        -3.399086         3.272909         0.907140
 H        -3.189693         0.840825         0.347710
