19
Iteration:  2919charge 0 multiplicity 1
 O        -3.086491         1.776608         3.002823
 C        -2.113894         2.043779         2.004279
 C        -0.714557         1.411735         2.042723
 C        -0.861237         1.207032         0.578561
 O        -0.048723         0.169317         0.066322
 C        -0.240320         2.458948        -0.195744
 C        -1.063022         3.649888         0.322225
 C        -2.322608         2.995640         0.820346
 C        -2.410657         1.509156         0.493279
 H        -2.573371         1.575055         3.861007
 H         0.170679         1.984564         2.372338
 H        -0.988609         0.409297         2.504836
 H        -0.595005        -0.303548        -0.549513
 H         0.821816         2.567718         0.069723
 H        -0.267925         2.347846        -1.321532
 H        -0.555598         4.162136         1.117569
 H        -1.173678         4.172848        -0.632960
 H        -3.237864         3.575997         0.679870
 H        -3.297765         0.942401         0.368059
