19
Iteration:  2383charge 0 multiplicity 1
 O        -3.166400         1.854741         3.067297
 C        -2.091606         2.059990         2.036355
 C        -0.578598         1.553949         2.083492
 C        -0.793626         1.196775         0.535900
 O        -0.233151         0.048750        -0.064025
 C        -0.299908         2.433757        -0.298531
 C        -1.056768         3.621959         0.324053
 C        -2.281952         2.989052         0.831241
 C        -2.326624         1.448574         0.689817
 H        -3.423823         0.914941         2.829394
 H         0.254887         2.176114         2.489014
 H        -0.811605         0.587722         2.658501
 H         0.555368         0.327708        -0.503784
 H         0.826719         2.632448        -0.171846
 H        -0.584872         2.324384        -1.356834
 H        -0.284905         3.923824         1.021519
 H        -1.179540         4.537088        -0.290807
 H        -3.234527         3.568625         0.698065
 H        -3.160721         0.782854         0.513377
