19
Iteration:  4394
 O        -3.123327         1.909674         2.977324
 C        -2.167264         1.994373         2.007633
 C        -0.755299         1.367330         2.052518
 C        -0.763355         1.280502         0.497061
 O        -0.181715         0.031675        -0.040926
 C        -0.172593         2.531831        -0.181997
 C        -1.097343         3.678699         0.374401
 C        -2.323442         2.932601         0.851269
 C        -2.306251         1.508531         0.583109
 H        -3.215795         0.988132         3.339405
 H         0.055830         1.893491         2.552627
 H        -0.897164         0.340136         2.506391
 H         0.689778        -0.070916         0.334945
 H         0.876164         2.673935         0.158511
 H        -0.025906         2.424430        -1.256169
 H        -0.637365         4.392645         1.032608
 H        -1.333625         4.338808        -0.510061
 H        -3.204694         3.511265         0.935106
 H        -2.985967         0.804236         0.073202
