19
Iteration:   791charge 0 multiplicity 1
 O        -3.144496         1.748824         2.922719
 C        -2.202857         1.936785         1.987955
 C        -0.757491         1.464583         2.019535
 C        -0.824080         1.232488         0.451221
 O        -0.229523         0.016102         0.071461
 C        -0.122753         2.492474        -0.126100
 C        -0.975725         3.674681         0.341935
 C        -2.300799         3.029176         0.831995
 C        -2.320075         1.587272         0.503757
 H        -2.999289         2.072225         3.807633
 H        -0.003388         2.033216         2.584965
 H        -0.861718         0.482862         2.595424
 H         0.386033        -0.286547         0.782963
 H         0.954620         2.578866         0.198239
 H        -0.174601         2.527461        -1.224630
 H        -0.530925         4.267867         1.185964
 H        -0.980238         4.517055        -0.393332
 H        -3.305910         3.418127         0.840483
 H        -3.042774         1.012706        -0.058580
