19
Iteration:  1368charge 0 multiplicity 1
 O        -3.055475         2.049017         2.992345
 C        -2.211654         1.991608         1.929664
 C        -0.837472         1.320571         2.141656
 C        -0.739553         1.228156         0.555190
 O        -0.206275         0.005345        -0.018015
 C        -0.179655         2.556053        -0.149031
 C        -1.082231         3.683670         0.324220
 C        -2.311035         2.943933         0.867020
 C        -2.237102         1.388661         0.486816
 H        -2.991759         1.213646         3.413253
 H         0.034195         1.788422         2.630125
 H        -1.070126         0.411385         2.755701
 H         0.658158         0.154986        -0.388885
 H         0.890370         2.633810         0.078485
 H        -0.326913         2.504133        -1.256647
 H        -0.657270         4.212598         1.221961
 H        -1.362327         4.477918        -0.383695
 H        -3.302519         3.410357         0.749879
 H        -3.081004         0.854379         0.083383
