19
Iteration:  2455charge 0 multiplicity 1
 O        -2.941827         1.813791         3.068448
 C        -2.162779         2.088479         1.933720
 C        -0.725881         1.562144         2.024548
 C        -0.767939         1.216861         0.536965
 O        -0.255906        -0.007148         0.070405
 C        -0.158952         2.524943        -0.153606
 C        -1.115674         3.626020         0.326845
 C        -2.370849         2.984573         0.835744
 C        -2.329566         1.472684         0.485447
 H        -2.527514         0.979329         3.483068
 H         0.152345         2.141447         2.370959
 H        -0.813886         0.583365         2.390588
 H        -0.790831        -0.414597        -0.603069
 H         0.795263         2.567393         0.344668
 H        -0.084073         2.417362        -1.254731
 H        -0.808268         4.301351         1.173097
 H        -1.227227         4.229121        -0.581617
 H        -3.322839         3.496028         0.727498
 H        -3.205838         0.966802         0.218140
