19
Iteration:  1280charge 0 multiplicity 1
 O        -3.019172         1.809277         2.964794
 C        -2.172145         1.930343         1.921110
 C        -0.764284         1.517221         2.089857
 C        -0.693978         1.356932         0.491918
 O        -0.391735        -0.052965         0.189420
 C        -0.078534         2.546907        -0.194709
 C        -1.057377         3.699442         0.359240
 C        -2.375650         2.939471         0.808990
 C        -2.185793         1.533186         0.459996
 H        -2.932388         0.957784         3.419013
 H        -0.096983         2.214875         2.576231
 H        -0.700214         0.437822         2.451494
 H        -1.209271        -0.256732        -0.260525
 H         0.948358         2.524978         0.228546
 H         0.140530         2.440699        -1.271638
 H        -0.682851         4.260046         1.262022
 H        -1.250942         4.524165        -0.370753
 H        -3.373397         3.405782         0.826028
 H        -2.912962         0.987546        -0.201002
