19
Iteration:  1277
 O        -3.006845         1.806139         2.957648
 C        -2.161532         1.915127         1.931414
 C        -0.763097         1.534549         2.085312
 C        -0.715279         1.362078         0.486744
 O        -0.393984        -0.047213         0.189229
 C        -0.067897         2.585017        -0.172223
 C        -1.060629         3.675520         0.367006
 C        -2.368238         2.955763         0.806453
 C        -2.208436         1.498076         0.436284
 H        -2.952482         1.027545         3.488272
 H        -0.055903         2.131743         2.654377
 H        -0.717029         0.417367         2.495644
 H        -1.245018        -0.257635        -0.224729
 H         0.976194         2.489885         0.241821
 H         0.101779         2.379036        -1.233520
 H        -0.640283         4.297161         1.167651
 H        -1.329571         4.429258        -0.412482
 H        -3.290853         3.529153         0.789777
 H        -2.870201         0.980655        -0.245629
