19
Iteration:  3045charge 0 multiplicity 1
 O        -3.066415         1.949596         3.067063
 C        -2.122552         1.862065         1.989300
 C        -0.791712         1.290253         2.055776
 C        -0.742437         1.284079         0.505937
 O        -0.101925         0.126092         0.087857
 C        -0.205357         2.554100        -0.196627
 C        -1.152622         3.654092         0.204450
 C        -2.280953         2.834995         0.928411
 C        -2.367385         1.476976         0.551690
 H        -3.313663         2.851441         3.243589
 H         0.076138         1.789242         2.532573
 H        -0.800820         0.278533         2.366143
 H         0.107761         0.131926        -0.844045
 H         0.863849         2.699604         0.070296
 H        -0.187711         2.495042        -1.273755
 H        -0.765454         4.419830         0.927898
 H        -1.602516         4.276918        -0.586484
 H        -3.309850         3.291207         1.116527
 H        -2.993250         0.949371        -0.126363
