19
Iteration:  4869
 O        -3.149560         1.973312         2.985708
 C        -2.146968         1.845498         1.965481
 C        -0.693425         1.437088         2.049325
 C        -0.729226         1.308861         0.509387
 O        -0.176117         0.058425        -0.016191
 C        -0.101593         2.546001        -0.065794
 C        -1.105865         3.672778         0.335396
 C        -2.361917         2.927972         0.882284
 C        -2.260863         1.408458         0.544610
 H        -3.468703         1.102661         3.068123
 H        -0.037415         1.998943         2.672521
 H        -0.752881         0.416481         2.229189
 H        -0.708252        -0.022819        -0.804439
 H         0.865945         2.625162         0.504378
 H         0.109144         2.453806        -1.125347
 H        -0.718203         4.458719         0.874553
 H        -1.460886         4.228881        -0.564658
 H        -3.258309         3.491833         1.163057
 H        -3.134329         0.861902         0.186207
