19
Iteration:  2414
 O        -3.144454         1.845564         3.009980
 C        -2.113921         1.815937         2.014470
 C        -0.613576         1.525734         2.085664
 C        -0.724960         1.295384         0.501631
 O        -0.332322        -0.001768         0.205912
 C        -0.317905         2.492915        -0.420091
 C        -1.057978         3.699180         0.313254
 C        -2.150037         2.936548         0.980999
 C        -2.244473         1.554974         0.519380
 H        -3.587285         0.999283         2.982900
 H        -0.078976         2.372104         2.533187
 H        -0.366266         0.632454         2.674251
 H         0.024429         0.066817        -0.729794
 H         0.734067         2.810925        -0.608951
 H        -0.934066         2.338248        -1.338773
 H        -0.293802         4.282400         0.952727
 H        -1.629827         4.413075        -0.353431
 H        -3.120486         3.473993         0.938515
 H        -3.022469         1.135940        -0.072183
