19
Iteration:   262
 O        -3.063528         1.703730         2.991192
 C        -2.183438         1.948995         1.831251
 C        -0.833782         1.474900         2.073122
 C        -0.719236         1.246147         0.536242
 O        -0.148902        -0.010031         0.202175
 C        -0.097639         2.511133        -0.108312
 C        -1.027164         3.706854         0.295793
 C        -2.348673         3.003195         0.784402
 C        -2.339716         1.543517         0.455524
 H        -3.332503         2.543170         3.443994
 H        -0.219218         2.224940         2.601909
 H        -0.739283         0.588450         2.578247
 H        -0.899994        -0.526137        -0.179161
 H         0.806484         2.668124         0.495065
 H         0.163937         2.525737        -1.196478
 H        -0.638510         4.415569         1.040679
 H        -1.199551         4.367373        -0.519361
 H        -3.345727         3.501752         0.726945
 H        -3.172219         1.239558        -0.139086
