19
Iteration:   893
 O        -3.122809         2.027471         3.003987
 C        -2.183781         1.881701         1.947003
 C        -0.786309         1.362448         2.115311
 C        -0.735095         1.240059         0.470241
 O        -0.111295         0.085741         0.066234
 C        -0.227441         2.538561        -0.154066
 C        -0.977002         3.630103         0.373056
 C        -2.325118         2.928244         0.838853
 C        -2.260916         1.455428         0.543229
 H        -3.866765         1.356009         2.886640
 H         0.070978         1.905907         2.513465
 H        -0.840409         0.359765         2.641122
 H        -0.418937         0.046485        -0.851924
 H         0.825292         2.626100         0.031456
 H        -0.424241         2.430890        -1.200573
 H        -0.504109         4.112097         1.191020
 H        -1.238017         4.321654        -0.442285
 H        -3.301951         3.431694         0.763088
 H        -3.177679         1.043779         0.110519
