19
Iteration:  4732charge 0 multiplicity 1
 O        -3.119760         1.948721         3.069858
 C        -2.164766         1.893291         1.988018
 C        -0.779626         1.237325         2.166254
 C        -0.661890         1.310471         0.589239
 O        -0.218654         0.144581        -0.011911
 C        -0.107623         2.584320        -0.109336
 C        -1.149192         3.665095         0.133330
 C        -2.244896         2.881694         0.871842
 C        -2.243475         1.491472         0.546382
 H        -3.663300         1.112349         3.291361
 H        -0.034130         1.806531         2.759506
 H        -1.136273         0.171062         2.456311
 H        -0.483558         0.178467        -0.977420
 H         0.880286         2.720848         0.334934
 H         0.092404         2.305011        -1.203545
 H        -0.825595         4.660154         0.687855
 H        -1.564106         4.218582        -0.715458
 H        -3.185808         3.418324         0.601812
 H        -3.018233         1.035895        -0.018875
