19
Iteration:  3366charge 0 multiplicity 1
 O        -3.059773         1.771975         3.084212
 C        -2.177489         1.954609         1.967067
 C        -0.751738         1.539160         1.974101
 C        -0.770125         1.224626         0.534325
 O        -0.142806         0.072473         0.144493
 C        -0.237687         2.468458        -0.262599
 C        -1.036275         3.648178         0.333133
 C        -2.274212         2.979231         0.882468
 C        -2.335041         1.487987         0.522738
 H        -3.833273         2.208003         2.847056
 H         0.005174         2.212934         2.371382
 H        -0.569218         0.600787         2.628085
 H         0.235816         0.109978        -0.779834
 H         0.842383         2.375734        -0.098877
 H        -0.536155         2.283661        -1.296516
 H        -0.619208         4.183434         1.191981
 H        -1.364959         4.214913        -0.549822
 H        -3.308730         3.438591         0.957320
 H        -3.192521         1.106385         0.029484
