19
Iteration:   297
 O        -3.216971         1.947945         3.037739
 C        -2.224774         1.896766         1.959789
 C        -0.749702         1.383426         2.171965
 C        -0.635805         1.282065         0.544308
 O        -0.178507         0.106228        -0.090565
 C        -0.121381         2.550708        -0.106980
 C        -1.040182         3.672727         0.326472
 C        -2.272606         2.893964         0.738226
 C        -2.229080         1.404956         0.588013
 H        -4.015174         2.357825         2.639226
 H        -0.232094         2.172279         2.727471
 H        -0.654623         0.417174         2.663938
 H        -0.798711        -0.627713         0.147992
 H         0.922851         2.568340         0.263200
 H        -0.047738         2.372107        -1.206676
 H        -0.612343         4.243527         1.108536
 H        -1.175659         4.339126        -0.516361
 H        -3.319329         3.199661         0.732971
 H        -3.028428         0.956430        -0.015196
