19
Iteration:  1205charge 0 multiplicity 1
 O        -3.106483         2.100757         2.972521
 C        -2.160989         1.882304         1.984728
 C        -0.721834         1.274649         2.166938
 C        -0.787944         1.218096         0.589851
 O        -0.160812         0.186423        -0.108359
 C        -0.225093         2.466897        -0.115433
 C        -1.037617         3.692426         0.292465
 C        -2.294904         2.930787         0.819049
 C        -2.305567         1.444246         0.553082
 H        -3.696695         1.348077         3.116653
 H         0.100280         1.721291         2.885444
 H        -0.834292         0.238462         2.430276
 H         0.051521        -0.580271         0.499824
 H         0.845861         2.668841        -0.049146
 H        -0.374895         2.265211        -1.201839
 H        -0.625400         4.191704         1.212411
 H        -1.225943         4.462568        -0.463913
 H        -3.322346         3.325181         0.788937
 H        -2.810870         0.746875        -0.176737
