19
Iteration:  3919charge 0 multiplicity 1
 O        -3.277912         1.653850         2.834914
 C        -2.149091         2.023222         2.059514
 C        -0.607890         1.504647         2.048143
 C        -0.715700         1.300489         0.533037
 O        -0.264563        -0.002394         0.063870
 C        -0.160751         2.517504        -0.258972
 C        -1.019996         3.672133         0.333640
 C        -2.282813         3.008290         0.865999
 C        -2.310179         1.537881         0.597387
 H        -3.167745         2.165430         3.644573
 H         0.077443         2.386997         2.307975
 H        -0.545068         0.468761         2.455460
 H         0.461307        -0.272008         0.652198
 H         0.960711         2.462297        -0.130760
 H        -0.391498         2.398293        -1.318608
 H        -0.586103         4.210569         1.175438
 H        -1.323166         4.459079        -0.347182
 H        -3.264988         3.572182         0.945336
 H        -3.171843         0.825231         0.441684
