19
Iteration:   690
 O        -3.015032         1.832531         3.090295
 C        -2.243051         1.964864         1.944160
 C        -0.926848         1.319561         1.975138
 C        -0.777491         1.273458         0.509836
 O        -0.166956        -0.056435         0.138125
 C        -0.027296         2.594952        -0.005909
 C        -1.036289         3.725023         0.281156
 C        -2.288525         3.082668         0.811150
 C        -2.364147         1.534549         0.435933
 H        -3.522735         1.022720         2.904471
 H        -0.055957         1.876276         2.448124
 H        -1.071565         0.359959         2.441896
 H        -0.113561        -0.119626        -0.819339
 H         0.984370         2.675700         0.438135
 H         0.158282         2.407733        -1.071768
 H        -0.497304         4.375932         1.027815
 H        -1.184545         4.241352        -0.648474
 H        -3.246872         3.633978         0.771636
 H        -3.151494         1.047635        -0.190483
