19
Iteration:  1293charge 0 multiplicity 1
 O        -3.147557         1.817217         3.019984
 C        -2.171552         1.981555         1.946510
 C        -0.691680         1.500623         2.035148
 C        -0.697715         1.226888         0.528920
 O        -0.340676        -0.039680         0.167105
 C        -0.078731         2.508183        -0.211617
 C        -1.051176         3.749720         0.363009
 C        -2.329486         3.018207         0.815439
 C        -2.230752         1.520314         0.471275
 H        -3.036841         0.805502         3.107845
 H         0.068248         2.213821         2.494803
 H        -0.529260         0.648618         2.614114
 H        -0.831320        -0.476551        -0.584339
 H         0.872582         2.955975        -0.002161
 H        -0.372888         2.477764        -1.296071
 H        -0.468231         4.003935         1.287657
 H        -1.060352         4.609096        -0.307896
 H        -3.399990         3.268021         0.673466
 H        -2.998239         0.868506         0.003822
