19
Iteration:  4255charge 0 multiplicity 1
 O        -3.111965         1.599598         2.932727
 C        -2.138550         1.970618         1.971116
 C        -0.720885         1.520486         2.134605
 C        -0.638127         1.344912         0.584173
 O        -0.401956         0.102133         0.036846
 C        -0.195590         2.492720        -0.245005
 C        -1.059762         3.638019         0.343616
 C        -2.306591         2.982068         0.780293
 C        -2.208341         1.524279         0.560446
 H        -3.381673         2.399297         3.342019
 H         0.197026         1.981652         2.700553
 H        -0.821609         0.618455         2.683535
 H         0.315493        -0.329825         0.558338
 H         0.802972         2.799289        -0.242788
 H        -0.418534         2.438386        -1.370588
 H        -0.596989         4.204542         1.110395
 H        -1.100986         4.443236        -0.373842
 H        -3.246088         3.528850         0.914263
 H        -2.898503         0.880036        -0.029534
