19
Iteration:  3228
 O        -2.913926         1.978136         3.017621
 C        -2.100397         1.938532         1.931986
 C        -0.785046         1.281287         1.982892
 C        -0.790254         1.221370         0.470155
 O        -0.128371         0.047454         0.102455
 C        -0.236259         2.534610        -0.048272
 C        -1.188367         3.758127         0.238273
 C        -2.345856         2.951835         0.843435
 C        -2.372149         1.352001         0.581333
 H        -3.493869         2.806514         3.084399
 H         0.066169         1.775522         2.505104
 H        -1.054718         0.360713         2.442921
 H         0.677705         0.100513        -0.394633
 H         0.759105         2.663621         0.415872
 H         0.042291         2.260529        -1.086084
 H        -0.888962         4.472262         1.005195
 H        -1.597652         4.337358        -0.586752
 H        -3.379917         3.301349         0.983623
 H        -3.205703         0.932353         0.076180
