19
Iteration:  4804
 O        -3.094718         1.823551         3.019011
 C        -2.218125         1.866611         1.908016
 C        -0.763088         1.476880         2.078058
 C        -0.714257         1.286781         0.499315
 O        -0.227653         0.056522         0.224463
 C        -0.214960         2.582831        -0.330645
 C        -1.009334         3.650357         0.472181
 C        -2.271563         2.927721         0.812664
 C        -2.293113         1.553740         0.430726
 H        -3.001595         1.024838         3.595296
 H        -0.129140         2.128818         2.635679
 H        -0.670683         0.425742         2.364892
 H        -0.209044        -0.158144        -0.742280
 H         0.846236         2.854957        -0.101984
 H        -0.393282         2.368871        -1.396009
 H        -0.424521         3.993746         1.333444
 H        -1.217052         4.536493        -0.169844
 H        -3.265321         3.321342         0.659333
 H        -3.144066         1.163800        -0.148474
