19
Iteration:   613
 O        -3.214486         1.962677         2.947311
 C        -2.276777         2.015937         1.958612
 C        -0.768772         1.452306         2.004879
 C        -0.693077         1.256837         0.528754
 O        -0.216439        -0.019673         0.022711
 C        -0.110181         2.533161        -0.136973
 C        -0.971553         3.671597         0.510638
 C        -2.293305         2.906953         0.852837
 C        -2.263371         1.426196         0.534986
 H        -3.037574         1.094453         3.303816
 H        -0.034325         2.119605         2.574099
 H        -0.702182         0.460936         2.387403
 H        -0.275718         0.068883        -0.967240
 H         0.957732         2.567771         0.065349
 H        -0.317846         2.402734        -1.184490
 H        -0.422977         3.973366         1.428009
 H        -1.116266         4.432605        -0.226271
 H        -3.162705         3.500730         0.517044
 H        -3.053328         1.016765        -0.095897
