19
Iteration:  1412charge 0 multiplicity 1
 O        -3.113086         1.968333         3.048666
 C        -2.161865         1.919209         1.956365
 C        -0.765937         1.493629         2.053353
 C        -0.722144         1.234020         0.496091
 O        -0.406689        -0.041161        -0.062626
 C         0.003797         2.639096        -0.076340
 C        -1.069216         3.659486         0.319960
 C        -2.316909         2.898913         0.841478
 C        -2.261577         1.403086         0.509708
 H        -3.072470         1.132565         3.445813
 H        -0.119624         2.230608         2.567206
 H        -0.640010         0.522008         2.583298
 H         0.400803        -0.318873         0.361926
 H         0.797009         2.984063         0.584180
 H         0.374363         2.552092        -1.120956
 H        -0.751968         4.573132         0.884774
 H        -1.625097         4.033613        -0.550010
 H        -3.235313         3.504472         0.793512
 H        -2.873778         0.860747        -0.177631
