19
Iteration:  2773charge 0 multiplicity 1
 O        -3.082560         1.741462         2.944584
 C        -2.122438         1.975845         1.925900
 C        -0.633724         1.486757         2.060781
 C        -0.678895         1.249149         0.503504
 O        -0.305207         0.016766         0.038851
 C        -0.288393         2.552678        -0.256651
 C        -1.071362         3.704700         0.392362
 C        -2.346944         2.988919         0.909727
 C        -2.234290         1.500425         0.576025
 H        -2.851641         2.248865         3.769216
 H         0.235540         2.127808         2.375185
 H        -0.594927         0.546624         2.589827
 H        -0.899838        -0.637302         0.488242
 H         0.815686         2.763155        -0.232227
 H        -0.585856         2.354236        -1.314025
 H        -0.480350         3.934758         1.280015
 H        -1.292851         4.511903        -0.282024
 H        -3.284543         3.391654         0.653172
 H        -2.923262         0.999753        -0.045384
