19
Iteration:  1025charge 0 multiplicity 1
 O        -2.965271         1.968397         3.085826
 C        -2.190963         1.932617         1.919277
 C        -0.814561         1.325062         2.017199
 C        -0.780728         1.244316         0.504825
 O        -0.138358         0.134698         0.003326
 C        -0.160192         2.473695        -0.075930
 C        -1.005118         3.672098         0.360208
 C        -2.347133         2.941110         0.852614
 C        -2.411952         1.430221         0.431925
 H        -3.938705         2.250258         2.930191
 H         0.004970         1.975516         2.446532
 H        -1.025047         0.316245         2.527474
 H         0.252912        -0.500581         0.596317
 H         0.889559         2.554227         0.282956
 H        -0.273027         2.411621        -1.156242
 H        -0.654021         4.444284         1.051242
 H        -1.195781         4.247646        -0.578302
 H        -3.325102         3.457848         0.903284
 H        -3.120905         0.845561        -0.189698
