19
Iteration:   244
 O        -3.157861         1.679650         2.922739
 C        -2.236878         1.950731         1.938093
 C        -0.737472         1.453932         1.993299
 C        -0.784940         1.300048         0.499246
 O        -0.174938        -0.028253         0.304136
 C        -0.083242         2.603120        -0.093854
 C        -1.021493         3.761566         0.283375
 C        -2.284150         3.053622         0.776110
 C        -2.338735         1.505446         0.465515
 H        -2.933818         2.279318         3.697495
 H         0.173215         1.986464         2.392059
 H        -0.715177         0.404152         2.550169
 H        -0.640192        -0.651570        -0.317975
 H         1.002992         2.551074         0.068989
 H        -0.235896         2.362387        -1.155183
 H        -0.547882         4.311153         1.087418
 H        -1.279966         4.293782        -0.657615
 H        -3.212601         3.618254         0.686988
 H        -3.024187         0.756564         0.042834
