19
Iteration:  2596charge 0 multiplicity 1
 O        -3.038631         1.886021         2.860195
 C        -2.034212         1.964369         1.948213
 C        -0.558820         1.496026         2.056552
 C        -0.727704         1.273821         0.503033
 O        -0.404203        -0.057728         0.069666
 C        -0.287323         2.531619        -0.283156
 C        -1.118594         3.680106         0.442964
 C        -2.340594         2.947548         0.959840
 C        -2.287549         1.510294         0.536801
 H        -2.999139         1.032660         3.364443
 H         0.176344         2.306091         2.435875
 H        -0.593332         0.477010         2.482526
 H         0.159259        -0.417691         0.779658
 H         0.773405         2.799013        -0.184011
 H        -0.662882         2.510764        -1.361830
 H        -0.455447         4.074571         1.220732
 H        -1.255985         4.528157        -0.205941
 H        -3.257876         3.595306         0.792391
 H        -3.125510         0.875091         0.181802
