19
Iteration:  2062charge 0 multiplicity 1
 O        -3.136919         1.756292         2.936119
 C        -2.109501         1.991571         2.019727
 C        -0.589976         1.428055         1.997612
 C        -0.774040         1.281791         0.482688
 O        -0.208758         0.027391         0.194912
 C        -0.222034         2.512746        -0.285902
 C        -1.064483         3.678671         0.397394
 C        -2.440228         3.010623         0.824025
 C        -2.239803         1.491924         0.578945
 H        -3.027642         2.550302         3.471418
 H         0.202013         2.093830         2.514550
 H        -0.605051         0.550381         2.610367
 H        -0.516564        -0.235799        -0.728218
 H         0.847562         2.362623        -0.181345
 H        -0.565625         2.291501        -1.325510
 H        -0.456088         4.253476         1.144549
 H        -1.403024         4.336174        -0.383477
 H        -3.357882         3.609203         0.869985
 H        -2.885007         0.777520         0.104582
