19
Iteration:    27charge 0 multiplicity 1
 O        -2.986757         1.797879         3.091481
 C        -2.307088         1.958237         1.886837
 C        -0.857824         1.613009         2.057775
 C        -0.721157         1.217674         0.522846
 O        -0.011352         0.090199         0.154550
 C        -0.184319         2.441931        -0.200422
 C        -1.031906         3.624124         0.332723
 C        -2.430408         2.953961         0.688808
 C        -2.332335         1.459255         0.489207
 H        -3.929739         1.998018         3.062781
 H         0.065302         2.451083         2.355765
 H        -0.738578         0.748837         2.793590
 H         0.035708        -0.532521         0.878631
 H         0.795138         2.655932         0.187120
 H        -0.322341         2.383816        -1.255015
 H        -0.552185         4.123675         1.211709
 H        -1.087425         4.266346        -0.570697
 H        -3.425556         3.461804         0.581680
 H        -3.060697         0.890698        -0.153371
