19
Iteration:  4205
 O        -3.036777         1.947752         3.108726
 C        -2.246787         1.836593         2.002441
 C        -0.779602         1.367718         2.040673
 C        -0.770380         1.323887         0.481039
 O        -0.228538         0.071777         0.003315
 C        -0.047222         2.562399        -0.108668
 C        -1.085803         3.612989         0.345237
 C        -2.357838         2.843996         0.916375
 C        -2.317124         1.482938         0.387044
 H        -3.874538         2.487170         2.875741
 H        -0.045865         1.978850         2.517316
 H        -0.487307         0.321590         2.360429
 H         0.740850         0.231635        -0.185226
 H         1.082071         2.621782         0.255167
 H         0.033435         2.531804        -1.174607
 H        -0.642827         4.436422         1.022846
 H        -1.451096         4.235456        -0.500083
 H        -3.280914         3.370151         0.809552
 H        -3.154250         0.978390        -0.174430
