19
Iteration:  4416charge 0 multiplicity 1
 O        -3.104306         1.762003         3.048775
 C        -2.234007         1.942798         1.940669
 C        -0.749817         1.412680         2.136585
 C        -0.678519         1.313458         0.600523
 O        -0.340082         0.066824         0.020684
 C        -0.160102         2.523796        -0.221124
 C        -1.043096         3.747413         0.295825
 C        -2.330057         2.992422         0.850662
 C        -2.174209         1.511365         0.443072
 H        -2.976863         0.932012         3.504936
 H        -0.133822         2.051830         2.741337
 H        -0.922515         0.445049         2.676802
 H         0.470661        -0.393714         0.366584
 H         0.921949         2.696721        -0.342782
 H        -0.349428         2.311151        -1.211797
 H        -0.471427         4.386915         0.924177
 H        -1.283491         4.474337        -0.533544
 H        -3.315338         3.333366         0.753547
 H        -2.977372         1.056375        -0.182994
