19
Iteration:  1967charge 0 multiplicity 1
 O        -2.944133         2.037110         3.102201
 C        -2.141212         1.929051         1.933742
 C        -0.779492         1.393592         2.032330
 C        -0.651634         1.253799         0.513873
 O        -0.300578        -0.045818         0.004728
 C        -0.117046         2.588874        -0.018715
 C        -1.262922         3.690483         0.318275
 C        -2.335081         2.903598         0.753094
 C        -2.301850         1.467632         0.418781
 H        -3.257972         1.073894         3.270277
 H         0.142492         1.853744         2.465772
 H        -0.862931         0.289240         2.375784
 H         0.358714        -0.341723         0.635888
 H         0.869566         2.833038         0.492485
 H         0.078552         2.513674        -1.095590
 H        -0.916300         4.427144         1.088438
 H        -1.674743         4.250162        -0.588294
 H        -3.285407         3.449763         0.753662
 H        -3.044403         0.950898        -0.166919
