19
Iteration:  3403
 O        -3.026109         1.944261         3.106087
 C        -2.152031         1.971071         1.965895
 C        -0.752470         1.349518         2.114892
 C        -0.684713         1.300689         0.575044
 O        -0.244317         0.053649        -0.026680
 C        -0.138962         2.528765        -0.056832
 C        -1.208509         3.628174         0.241092
 C        -2.371153         2.839389         0.797526
 C        -2.215659         1.447091         0.496564
 H        -3.601065         2.705386         3.085455
 H         0.161615         1.828998         2.530731
 H        -0.977902         0.392488         2.458038
 H         0.257189         0.281764        -0.835708
 H         0.893441         2.700275         0.289189
 H        -0.068731         2.419500        -1.127191
 H        -0.739037         4.429319         0.850857
 H        -1.550033         4.271771        -0.633629
 H        -3.351535         3.277893         0.924872
 H        -2.991536         0.821746        -0.052509
