19
Iteration:  2177charge 0 multiplicity 1
 O        -3.139442         1.932204         3.099494
 C        -2.183486         1.873803         2.002548
 C        -0.663085         1.429388         2.106371
 C        -0.792626         1.299925         0.496045
 O        -0.233281         0.128514        -0.088099
 C        -0.119600         2.470530        -0.197439
 C        -1.014053         3.683709         0.243779
 C        -2.333392         2.926522         0.890228
 C        -2.296120         1.458552         0.533291
 H        -2.760422         1.479698         3.836522
 H         0.048702         2.053438         2.579509
 H        -0.602255         0.401357         2.555058
 H        -0.610737        -0.670608         0.370085
 H         0.929876         2.477624         0.103559
 H        -0.216739         2.257834        -1.255710
 H        -0.656783         4.465526         0.900885
 H        -1.575316         4.236711        -0.529147
 H        -3.309357         3.433665         0.903623
 H        -3.034239         1.070685        -0.187392
