19
Iteration:  3251charge 0 multiplicity 1
 O        -2.946044         1.949108         3.090993
 C        -2.118300         1.983824         2.026957
 C        -0.780212         1.224032         2.102512
 C        -0.724955         1.269089         0.578273
 O        -0.180511        -0.002834         0.039411
 C        -0.158393         2.578769        -0.100296
 C        -1.210984         3.651592         0.154252
 C        -2.374534         2.948730         0.830855
 C        -2.285393         1.519574         0.445920
 H        -3.781416         2.324304         3.060288
 H        -0.049560         1.732353         2.784618
 H        -1.024523         0.288941         2.502653
 H         0.381833         0.226435        -0.756300
 H         0.833494         2.945583         0.241188
 H        -0.026978         2.368656        -1.212168
 H        -1.051769         4.410987         0.890795
 H        -1.608384         4.155636        -0.722040
 H        -3.333011         3.444286         0.786451
 H        -3.050598         0.729938         0.245602
