19
Iteration:  2029charge 0 multiplicity 1
 O        -3.235394         1.819984         2.967978
 C        -2.225576         1.858881         2.018956
 C        -0.696869         1.535061         2.223201
 C        -0.725320         1.314372         0.473326
 O        -0.143308         0.044871         0.020330
 C        -0.284095         2.468817        -0.382866
 C        -0.995722         3.724923         0.305383
 C        -2.252370         2.974868         0.908033
 C        -2.210938         1.453063         0.605556
 H        -2.921679         1.727667         3.936066
 H        -0.020521         2.324117         2.745825
 H        -0.484297         0.625314         2.739013
 H        -0.845797        -0.600756        -0.025701
 H         0.793887         2.393414        -0.428025
 H        -0.688188         2.342130        -1.421627
 H        -0.233253         4.310936         0.831782
 H        -1.313683         4.485066        -0.396251
 H        -3.195953         3.509793         0.836676
 H        -2.919574         0.962309        -0.089039
