19
Iteration:  3932
 O        -3.238170         1.701427         2.884060
 C        -2.079349         2.009183         1.979349
 C        -0.654295         1.401291         2.077357
 C        -0.716825         1.240440         0.535473
 O        -0.299250         0.000433         0.074570
 C        -0.172601         2.579979        -0.170291
 C        -1.068869         3.747901         0.277023
 C        -2.323573         2.994367         0.873048
 C        -2.246512         1.508102         0.565576
 H        -3.367497         2.381964         3.627186
 H         0.312384         1.763771         2.592687
 H        -0.773883         0.424642         2.758591
 H         0.635086        -0.119365         0.373564
 H         0.920287         2.984827        -0.160271
 H        -0.404828         2.374354        -1.243908
 H        -0.505949         4.374164         1.000918
 H        -1.321168         4.292368        -0.644993
 H        -3.304747         3.503662         0.857118
 H        -3.034928         0.884250         0.206377
