19
Iteration:   513charge 0 multiplicity 1
 O        -3.073522         1.875202         2.928327
 C        -2.233131         1.895706         1.926977
 C        -0.828695         1.466115         2.204468
 C        -0.705052         1.330684         0.620877
 O        -0.312954        -0.025385        -0.024600
 C        -0.068279         2.572711        -0.037593
 C        -1.060295         3.646926         0.347118
 C        -2.237614         2.853124         0.825115
 C        -2.231635         1.460673         0.487526
 H        -3.749718         2.529742         2.655833
 H        -0.030286         2.198503         2.631167
 H        -0.650819         0.489551         2.562026
 H        -0.533020         0.112021        -0.953026
 H         0.810665         2.904329         0.425148
 H         0.119329         2.446375        -1.082404
 H        -0.578315         4.406098         0.966187
 H        -1.391503         4.287185        -0.459707
 H        -3.154771         3.423202         0.732160
 H        -2.859294         0.761500        -0.062170
