19
Iteration:  1312
 O        -3.153133         1.876886         2.929009
 C        -2.201158         1.956961         1.968488
 C        -0.707248         1.531881         2.070384
 C        -0.757211         1.308867         0.521832
 O        -0.191842        -0.042311         0.125561
 C        -0.252642         2.472618        -0.267807
 C        -0.928923         3.649336         0.405239
 C        -2.264880         2.952723         0.876618
 C        -2.304765         1.527580         0.603032
 H        -3.380767         0.932048         2.955527
 H         0.033621         2.235809         2.412177
 H        -0.625507         0.437992         2.502951
 H        -0.260270        -0.041863        -0.856001
 H         0.847838         2.337896        -0.100700
 H        -0.510201         2.625052        -1.327437
 H        -0.567664         4.290711         1.225460
 H        -1.323222         4.263095        -0.434003
 H        -3.139260         3.602554         0.958228
 H        -3.129928         1.043434         0.028553
