19
Iteration:  1636charge 0 multiplicity 1
 O        -3.056178         1.831603         3.093623
 C        -2.232303         1.900556         1.926257
 C        -0.769932         1.568570         2.044119
 C        -0.770540         1.281659         0.519426
 O        -0.359772         0.072965         0.111503
 C        -0.200293         2.554402        -0.175034
 C        -0.926015         3.660522         0.338362
 C        -2.229249         2.898977         0.807280
 C        -2.287781         1.418224         0.452557
 H        -3.858006         1.291363         2.990822
 H        -0.084213         2.348551         2.453376
 H        -0.532448         0.594302         2.415078
 H         0.602339        -0.134876         0.276063
 H         0.880620         2.644044         0.048680
 H        -0.209038         2.452537        -1.262723
 H        -0.585046         4.226594         1.244763
 H        -1.053834         4.499796        -0.395046
 H        -3.268495         3.255827         0.692937
 H        -2.829126         0.832434        -0.333417
