19
Iteration:  3212charge 0 multiplicity 1
 O        -3.041254         1.963078         3.158304
 C        -2.212011         1.949484         1.994422
 C        -0.726442         1.401840         2.050665
 C        -0.763811         1.219975         0.500576
 O        -0.134172         0.010159         0.015050
 C        -0.147429         2.531211        -0.126697
 C        -1.179089         3.579498         0.280531
 C        -2.390841         2.890946         0.813706
 C        -2.333872         1.467380         0.494644
 H        -3.230852         2.966227         3.259779
 H         0.090432         2.034594         2.388605
 H        -0.547712         0.343245         2.401699
 H         0.532237         0.402791        -0.539198
 H         0.855685         2.726119         0.291812
 H        -0.034610         2.549611        -1.215617
 H        -0.638426         4.252647         0.986149
 H        -1.324917         4.234872        -0.601565
 H        -3.352611         3.395882         0.671877
 H        -3.084126         0.905111        -0.139293
