19
Iteration:  1599
 O        -3.069442         1.939715         2.981709
 C        -2.105753         2.014994         2.001564
 C        -0.702850         1.376122         2.099461
 C        -0.682437         1.269272         0.526784
 O        -0.333908        -0.065715        -0.050799
 C        -0.145122         2.629880        -0.002717
 C        -1.148180         3.718537         0.187820
 C        -2.327270         2.918963         0.831228
 C        -2.265188         1.450384         0.583586
 H        -3.724796         1.368643         2.669617
 H         0.221083         1.784671         2.600437
 H        -1.049167         0.498727         2.625081
 H         0.547927        -0.458066         0.087371
 H         0.765640         2.785674         0.571528
 H         0.120059         2.573187        -1.088121
 H        -0.747643         4.419255         0.938253
 H        -1.469339         4.234688        -0.688944
 H        -3.296004         3.398011         0.846759
 H        -2.973468         0.756063         0.170582
