19
Iteration:  2078charge 0 multiplicity 1
 O        -3.045211         1.744635         3.065117
 C        -2.161209         1.948906         1.961222
 C        -0.699827         1.521629         2.015291
 C        -0.732338         1.275151         0.485982
 O        -0.256847        -0.041024         0.150580
 C        -0.179267         2.511080        -0.176489
 C        -1.106584         3.701758         0.272574
 C        -2.293151         2.970107         0.829702
 C        -2.345939         1.498207         0.543493
 H        -3.463360         2.511351         3.392239
 H         0.152538         2.069868         2.316308
 H        -0.546864         0.482880         2.429551
 H         0.035014        -0.008135        -0.807413
 H         0.833003         2.835720         0.143738
 H        -0.187655         2.520266        -1.259719
 H        -0.658492         4.227605         1.119511
 H        -1.136412         4.516456        -0.489350
 H        -3.303879         3.362582         0.737031
 H        -3.251134         0.966781         0.156691
