19
Iteration:  2375charge 0 multiplicity 1
 O        -3.099032         1.889759         3.087141
 C        -2.098780         2.083893         2.046636
 C        -0.673967         1.471937         2.076053
 C        -0.783906         1.229033         0.530528
 O        -0.232242         0.059390        -0.075789
 C        -0.281192         2.482532        -0.235274
 C        -1.064268         3.641737         0.340922
 C        -2.295865         2.917279         0.745045
 C        -2.336942         1.475222         0.680427
 H        -3.281646         0.882800         3.033251
 H         0.262522         2.035772         2.229636
 H        -0.528279         0.512218         2.684413
 H         0.670226         0.184385        -0.347310
 H         0.785246         2.383573        -0.177945
 H        -0.375185         2.280311        -1.294854
 H        -0.541777         4.078285         1.183615
 H        -1.282942         4.425195        -0.360150
 H        -3.277935         3.404117         0.565081
 H        -3.295856         0.893156         0.456941
