19
Iteration:  2652
 O        -3.015514         1.881254         3.190885
 C        -2.191439         1.964737         2.037412
 C        -0.772648         1.516754         2.086228
 C        -0.794006         1.295783         0.542102
 O        -0.256474         0.061057        -0.141076
 C        -0.093880         2.354631        -0.157533
 C        -1.075946         3.597945         0.255933
 C        -2.328788         2.932380         0.952199
 C        -2.308958         1.513741         0.495927
 H        -3.873724         1.352909         3.071361
 H        -0.107557         2.390826         2.491942
 H        -0.590435         0.660853         2.735884
 H         0.403386         0.314523        -0.846297
 H         0.951468         2.556778         0.123185
 H        -0.126198         2.331118        -1.267846
 H        -0.455847         4.412081         0.672549
 H        -1.489317         4.037478        -0.644593
 H        -3.154165         3.610364         0.915918
 H        -2.997959         1.018814        -0.222696
