19
Iteration:  4393
 O        -3.120454         1.917379         2.972304
 C        -2.170064         1.986965         2.008582
 C        -0.746338         1.362287         2.045211
 C        -0.768981         1.282374         0.499423
 O        -0.177567         0.033753        -0.040377
 C        -0.173581         2.525077        -0.187567
 C        -1.097859         3.682039         0.375354
 C        -2.329700         2.936418         0.850531
 C        -2.307735         1.501975         0.586248
 H        -3.250977         0.986511         3.352727
 H         0.050541         1.908591         2.547987
 H        -0.908507         0.327677         2.535341
 H         0.696553        -0.069657         0.316830
 H         0.888965         2.660132         0.178887
 H         0.025211         2.450230        -1.221154
 H        -0.613879         4.409339         1.027258
 H        -1.331834         4.359002        -0.485151
 H        -3.239949         3.499404         0.967556
 H        -3.002533         0.809012         0.091249
