19
Iteration:  4258charge 0 multiplicity 1
 O        -3.116392         1.597505         2.918693
 C        -2.181684         1.935246         1.991663
 C        -0.697644         1.538951         2.115765
 C        -0.674603         1.350221         0.598890
 O        -0.404859         0.103405         0.056423
 C        -0.216645         2.530437        -0.271319
 C        -1.028508         3.644821         0.319426
 C        -2.306373         2.979392         0.801889
 C        -2.181669         1.514556         0.562450
 H        -3.329176         2.446951         3.466746
 H         0.194266         1.948079         2.681816
 H        -0.801524         0.539207         2.597943
 H         0.299094        -0.393348         0.551421
 H         0.871341         2.789378        -0.112579
 H        -0.402008         2.360885        -1.325830
 H        -0.434093         4.214381         1.096162
 H        -1.148985         4.431117        -0.420180
 H        -3.225509         3.500143         0.897519
 H        -2.826194         0.895629        -0.103757
