19
Iteration:   974charge 0 multiplicity 1
 O        -3.165733         1.715900         2.924693
 C        -2.157664         1.919499         1.990172
 C        -0.684057         1.467716         2.169066
 C        -0.693762         1.371193         0.561791
 O        -0.407188         0.041184        -0.040204
 C        -0.104241         2.445422        -0.131189
 C        -1.086816         3.671801         0.256012
 C        -2.242920         2.977177         0.824316
 C        -2.246878         1.547630         0.603903
 H        -3.337444         2.491916         3.496964
 H         0.033246         2.240681         2.580931
 H        -0.549642         0.493516         2.563110
 H         0.335883        -0.342616         0.474252
 H         0.987041         2.621319        -0.102274
 H        -0.188582         2.161162        -1.238695
 H        -0.682517         4.444031         0.986895
 H        -1.349869         4.372106        -0.552307
 H        -3.165548         3.561669         0.701934
 H        -2.908706         0.907376         0.006372
