19
Iteration:  3329charge 0 multiplicity 1
 O        -3.009617         1.708876         3.089223
 C        -2.140704         1.947746         1.965846
 C        -0.773851         1.484329         2.035968
 C        -0.685225         1.262415         0.478733
 O        -0.270016        -0.002073         0.309029
 C        -0.228876         2.604938        -0.364489
 C        -1.057737         3.767644         0.345814
 C        -2.271639         2.921423         0.777785
 C        -2.209796         1.462867         0.495879
 H        -3.894542         1.979142         2.792445
 H        -0.122581         2.242507         2.586438
 H        -0.826334         0.522868         2.500416
 H        -0.808782        -0.281081        -0.482057
 H         0.853962         2.875506        -0.618412
 H        -0.717322         2.623606        -1.413395
 H        -0.600690         4.285481         1.241022
 H        -1.243287         4.618899        -0.294384
 H        -3.219317         3.425317         0.745742
 H        -3.097546         0.850235         0.121410
