19
Iteration:  4787charge 0 multiplicity 1
 O        -3.127161         1.820645         2.982517
 C        -2.181115         1.912781         1.925601
 C        -0.707355         1.495033         1.951898
 C        -0.780279         1.297451         0.459031
 O        -0.229727        -0.059773         0.196030
 C        -0.115751         2.564375        -0.159413
 C        -1.023942         3.738141         0.395867
 C        -2.390482         3.016541         0.911600
 C        -2.307967         1.464532         0.481140
 H        -3.082064         0.903739         3.282820
 H         0.047612         2.297529         2.292965
 H        -0.486203         0.476440         2.470259
 H         0.130922        -0.071210        -0.721502
 H         0.949118         2.490888        -0.038496
 H        -0.400205         2.580568        -1.250597
 H        -0.583244         4.192327         1.346791
 H        -1.214658         4.417863        -0.423876
 H        -3.227002         3.725632         1.063452
 H        -2.927308         0.823671        -0.098028
