19
Iteration:   589
 O        -3.036150         1.907264         3.027003
 C        -2.274090         1.842814         1.908869
 C        -0.835030         1.282186         2.092159
 C        -0.776012         1.268782         0.478978
 O        -0.185328         0.053758         0.237638
 C        -0.157589         2.551904        -0.186948
 C        -0.943636         3.659522         0.403938
 C        -2.317452         3.011582         0.833139
 C        -2.342791         1.611819         0.351673
 H        -3.620281         1.088480         2.935878
 H        -0.271772         2.126262         2.625181
 H        -0.618208         0.348337         2.521492
 H         0.064809        -0.127142        -0.701549
 H         0.876631         2.669255        -0.007158
 H        -0.406164         2.488439        -1.290117
 H        -0.397156         3.986219         1.283982
 H        -0.958943         4.430554        -0.364367
 H        -3.096195         3.767536         0.888566
 H        -2.850394         0.983556        -0.334804
