19
Iteration:  4780
 O        -3.112447         1.811910         2.941033
 C        -2.163374         1.996352         1.930763
 C        -0.692093         1.459541         1.987404
 C        -0.826045         1.217101         0.494889
 O        -0.237953        -0.045285         0.148007
 C        -0.111704         2.609736        -0.149067
 C        -1.043248         3.694174         0.384372
 C        -2.369403         3.013032         0.951656
 C        -2.281959         1.478482         0.500004
 H        -3.222169         0.926387         3.161925
 H        -0.080991         2.313940         2.123165
 H        -0.426224         0.639938         2.464690
 H         0.163028        -0.028665        -0.717131
 H         0.982530         2.662282         0.174085
 H        -0.161760         2.413493        -1.202476
 H        -0.637275         4.309236         1.113825
 H        -1.249147         4.390099        -0.446798
 H        -3.350471         3.507273         0.989777
 H        -3.140735         0.855675         0.083180
