19
Iteration:  4619charge 0 multiplicity 1
 O        -3.189043         1.811860         2.870870
 C        -2.094800         1.968707         2.004928
 C        -0.619828         1.448365         2.021051
 C        -0.737184         1.340870         0.496031
 O        -0.207366         0.023053         0.119170
 C        -0.261533         2.478238        -0.231230
 C        -1.028376         3.604755         0.367938
 C        -2.284180         3.042714         0.946752
 C        -2.391692         1.500318         0.624996
 H        -3.475513         0.941105         2.738017
 H         0.003483         2.254707         2.409079
 H        -0.618459         0.347143         2.257738
 H         0.735587         0.087853        -0.207110
 H         0.788275         2.534962        -0.116193
 H        -0.427975         2.335641        -1.348586
 H        -0.564797         4.419576         1.043079
 H        -1.262511         4.353865        -0.387584
 H        -3.114647         3.696810         1.019713
 H        -3.293231         0.940363         0.353177
