19
Iteration:   570charge 0 multiplicity 1
 O        -3.075693         1.814701         3.010808
 C        -2.214854         1.882891         1.887136
 C        -0.863711         1.378831         2.015763
 C        -0.713781         1.265024         0.513174
 O        -0.158055         0.027050         0.260091
 C        -0.098145         2.454227        -0.207915
 C        -1.006916         3.731300         0.350969
 C        -2.242231         3.061406         0.924471
 C        -2.368505         1.596436         0.414313
 H        -3.932571         1.429744         2.756266
 H         0.028095         1.742794         2.611653
 H        -1.116194         0.368350         2.280861
 H        -0.020166        -0.172999        -0.703541
 H         0.945973         2.663696         0.015765
 H        -0.253367         2.399960        -1.248702
 H        -0.472334         4.280683         1.168370
 H        -1.421798         4.320260        -0.437535
 H        -3.236050         3.552739         0.984787
 H        -3.254346         1.383314        -0.162023
