19
Iteration:  4013charge 0 multiplicity 1
 O        -3.049861         1.941117         2.945319
 C        -2.107856         1.950022         1.949066
 C        -0.724969         1.217992         2.150410
 C        -0.740406         1.223744         0.575855
 O        -0.197624         0.056608        -0.041975
 C        -0.130497         2.571611        -0.006637
 C        -1.172544         3.684623         0.327710
 C        -2.381796         2.953373         0.740268
 C        -2.313029         1.460697         0.557724
 H        -3.544845         2.702580         3.242536
 H         0.021930         1.778333         2.706974
 H        -0.982670         0.276386         2.578818
 H         0.465752         0.510150        -0.566445
 H         0.868998         2.832963         0.225057
 H        -0.152627         2.279059        -1.117098
 H        -0.713294         4.326955         1.067196
 H        -1.498446         4.268904        -0.561557
 H        -3.322552         3.488450         0.829983
 H        -2.906810         0.699709        -0.029776
