19
Iteration:   802
 O        -3.155094         1.733277         2.974072
 C        -2.174093         2.028144         1.914003
 C        -0.858075         1.439015         2.063015
 C        -0.757366         1.273848         0.488222
 O        -0.257113        -0.042152         0.053831
 C        -0.057016         2.564708        -0.168856
 C        -1.022808         3.756057         0.339671
 C        -2.283067         2.997560         0.827024
 C        -2.327405         1.480191         0.511110
 H        -2.611126         1.711620         3.840235
 H        -0.102423         2.196190         2.327749
 H        -0.740620         0.406976         2.546647
 H         0.047511        -0.415466         0.895699
 H         0.891900         2.644615         0.444788
 H         0.241213         2.482243        -1.239447
 H        -0.459098         4.173295         1.203327
 H        -1.173053         4.333038        -0.605114
 H        -3.185670         3.579208         0.957139
 H        -3.146039         1.229079        -0.156907
