19
Iteration:  2734charge 0 multiplicity 1
 O        -3.012805         1.822254         3.158018
 C        -2.251424         1.880857         2.040712
 C        -0.761348         1.472189         2.058107
 C        -0.820608         1.278274         0.481445
 O        -0.142500         0.119784        -0.084685
 C        -0.121882         2.460546        -0.203446
 C        -1.024629         3.640478         0.245254
 C        -2.252312         3.003421         0.919772
 C        -2.350766         1.421646         0.579068
 H        -3.786037         2.307513         2.949772
 H        -0.118823         2.245117         2.478360
 H        -0.809176         0.542833         2.712904
 H        -0.741099        -0.370600        -0.642306
 H         0.881287         2.606692         0.182922
 H        -0.107485         2.384174        -1.289030
 H        -0.413887         4.245908         0.955425
 H        -1.359747         4.342053        -0.620171
 H        -3.304855         3.490650         0.940351
 H        -3.326480         1.116906         0.076418
