19
Iteration:  3524charge 0 multiplicity 1
 O        -3.127345         1.664380         2.879916
 C        -2.152123         1.937504         1.977530
 C        -0.609415         1.618584         2.029402
 C        -0.786357         1.282154         0.529284
 O        -0.318634        -0.105690         0.299025
 C        -0.211809         2.636566        -0.356375
 C        -1.012658         3.695908         0.342576
 C        -2.340050         2.959606         0.877376
 C        -2.286816         1.485127         0.534527
 H        -2.920716         2.137458         3.694552
 H         0.181659         2.379068         2.205015
 H        -0.465004         0.706792         2.513565
 H         0.262905        -0.196514        -0.498386
 H         0.802499         2.912807        -0.265892
 H        -0.566856         2.461166        -1.334499
 H        -0.543476         4.122707         1.265567
 H        -1.209529         4.534281        -0.380402
 H        -3.228451         3.612176         1.067921
 H        -2.974816         0.868302         0.024272
