19
Iteration:  3276
 O        -3.049812         1.873233         3.159836
 C        -2.236765         1.903871         2.045556
 C        -0.717216         1.481505         2.065505
 C        -0.791624         1.276794         0.548701
 O        -0.219365         0.070502         0.008117
 C        -0.100578         2.515800        -0.149678
 C        -1.050548         3.659058         0.153667
 C        -2.307112         2.944370         0.864247
 C        -2.265501         1.358199         0.556670
 H        -3.971460         2.115369         3.019663
 H        -0.040068         2.185776         2.601881
 H        -0.681443         0.489756         2.564396
 H        -0.423940         0.270857        -0.941511
 H         0.903063         2.651270         0.327769
 H         0.092352         2.601600        -1.251967
 H        -0.781674         4.587162         0.650836
 H        -1.472881         3.942544        -0.802175
 H        -3.254601         3.405828         0.624976
 H        -3.002082         0.846418        -0.119303
