19
Iteration:  2012
 O        -3.228792         1.797503         3.033726
 C        -2.158672         2.002537         2.029307
 C        -0.748451         1.518759         2.067926
 C        -0.724342         1.251447         0.565055
 O        -0.188772         0.129968        -0.001092
 C        -0.149812         2.489477        -0.298303
 C        -1.004690         3.564078         0.256229
 C        -2.296571         2.941771         0.922301
 C        -2.283742         1.513401         0.503819
 H        -2.664388         1.459188         3.821523
 H        -0.003776         2.238362         2.451367
 H        -0.518168         0.576991         2.673088
 H        -0.472508        -0.592560         0.547887
 H         0.935817         2.798898        -0.367977
 H        -0.512634         2.163587        -1.265843
 H        -0.607174         4.199602         1.070007
 H        -1.323442         4.356625        -0.511477
 H        -3.270422         3.450889         0.872834
 H        -3.068717         1.012584        -0.012062
