19
Iteration:  2706charge 0 multiplicity 1
 O        -2.926431         1.977275         3.122702
 C        -2.126463         1.901134         2.000073
 C        -0.720401         1.167595         2.030314
 C        -0.706001         1.292198         0.544853
 O        -0.257989         0.009443         0.048552
 C        -0.154193         2.617637        -0.101011
 C        -1.213823         3.717095         0.271705
 C        -2.348149         2.974190         0.872625
 C        -2.221797         1.504709         0.396506
 H        -3.882749         1.916880         2.941935
 H         0.092456         1.616952         2.644466
 H        -1.052036         0.259811         2.468983
 H        -0.756188        -0.299064        -0.742198
 H         0.842845         3.049005         0.088196
 H        -0.309850         2.587242        -1.197967
 H        -0.682313         4.410441         0.913671
 H        -1.554408         4.122991        -0.654586
 H        -3.333326         3.399982         0.881178
 H        -3.086546         0.933451         0.107882
