19
Iteration:  4595charge 0 multiplicity 1
 O        -3.138374         1.800042         3.053215
 C        -2.182461         1.955965         1.966595
 C        -0.717621         1.453601         2.144006
 C        -0.737187         1.275068         0.561242
 O        -0.295088         0.010929         0.003624
 C        -0.155900         2.505298        -0.236065
 C        -1.077498         3.722349         0.278672
 C        -2.259834         3.013593         0.908889
 C        -2.220379         1.501453         0.494658
 H        -3.551052         0.916666         2.965226
 H        -0.039154         2.247002         2.486375
 H        -0.756779         0.494610         2.563951
 H         0.668466         0.022342        -0.006598
 H         0.849907         2.667605        -0.012525
 H        -0.239830         2.270201        -1.250269
 H        -0.591608         4.377996         0.943675
 H        -1.395791         4.481817        -0.449781
 H        -3.364281         3.337461         0.803288
 H        -3.016481         0.959686        -0.002156
