19
Iteration:   177
 O        -3.233722         2.013290         2.930799
 C        -2.205673         1.991652         1.984580
 C        -0.720273         1.481398         2.104400
 C        -0.743729         1.249006         0.537074
 O        -0.129121         0.030632        -0.006056
 C        -0.156008         2.499934        -0.159930
 C        -1.069700         3.581795         0.336103
 C        -2.329883         2.943017         0.833773
 C        -2.282394         1.396142         0.541454
 H        -3.053540         1.192706         3.470654
 H         0.085545         2.104330         2.638990
 H        -0.700654         0.438906         2.577938
 H         0.641929        -0.056646         0.569562
 H         0.902943         2.731889        -0.012946
 H        -0.239182         2.411079        -1.254654
 H        -0.662149         4.067719         1.204443
 H        -1.390113         4.351226        -0.324073
 H        -3.305908         3.467003         0.586932
 H        -2.968235         0.758170        -0.027359
