19
Iteration:  3908
 O        -3.228923         1.658221         2.831003
 C        -2.160528         1.918163         2.004596
 C        -0.687513         1.639212         2.059800
 C        -0.771690         1.320985         0.487967
 O        -0.263287         0.033906         0.058318
 C        -0.192449         2.421925        -0.316138
 C        -0.994127         3.651519         0.401684
 C        -2.296595         3.024374         0.907927
 C        -2.268702         1.519601         0.649187
 H        -3.212719         1.990905         3.691108
 H         0.081403         2.392764         2.487075
 H        -0.287729         0.779249         2.642069
 H         0.256872        -0.312723         0.783915
 H         0.899483         2.559445        -0.053046
 H        -0.270930         2.363452        -1.399810
 H        -0.355115         4.042917         1.183751
 H        -1.081751         4.408662        -0.357301
 H        -3.230188         3.641135         0.763565
 H        -3.056468         0.980326         0.041058
