19
Iteration:  1702
 O        -3.253024         1.949796         2.910186
 C        -2.159198         1.866899         2.043985
 C        -0.672379         1.442063         2.163876
 C        -0.719879         1.322256         0.557509
 O        -0.334960         0.010678         0.079949
 C        -0.158082         2.561102        -0.278770
 C        -1.021030         3.651437         0.291976
 C        -2.269125         2.915901         0.912425
 C        -2.216034         1.439136         0.518295
 H        -3.244056         1.023989         3.304004
 H         0.009645         2.115877         2.756821
 H        -0.471520         0.406952         2.449230
 H         0.521259         0.157608        -0.312341
 H         0.886114         2.919848        -0.165256
 H        -0.371613         2.540645        -1.387269
 H        -0.421771         4.320965         0.970113
 H        -1.258775         4.361012        -0.557534
 H        -3.243912         3.443175         0.909632
 H        -2.999671         0.835410         0.044679
