19
Iteration:  2873charge 0 multiplicity 1
 O        -3.022400         1.980318         3.130337
 C        -2.207999         1.894747         1.950053
 C        -0.653631         1.301001         2.118301
 C        -0.679333         1.319900         0.458834
 O        -0.340006         0.065506         0.020241
 C        -0.149733         2.618507        -0.082046
 C        -1.141983         3.689893         0.331280
 C        -2.327263         2.795437         0.871886
 C        -2.208611         1.416179         0.433412
 H        -3.736589         2.690662         2.844087
 H        -0.077659         2.051773         2.689101
 H        -0.657711         0.248298         2.369494
 H        -0.062890         0.046792        -0.932029
 H         0.950239         2.809275         0.066548
 H        -0.238834         2.375891        -1.190433
 H        -0.787684         4.365598         1.118457
 H        -1.440113         4.153669        -0.621923
 H        -3.423339         3.183467         0.864513
 H        -2.879333         0.789127        -0.222296
