19
Iteration:   947charge 0 multiplicity 1
 O        -3.140435         1.719243         2.933731
 C        -2.200619         1.987980         1.906105
 C        -0.708465         1.588934         2.051306
 C        -0.772721         1.287366         0.497169
 O        -0.387807        -0.080219         0.110069
 C        -0.068679         2.498934        -0.157556
 C        -1.020411         3.742408         0.343149
 C        -2.284857         3.008690         0.863350
 C        -2.291167         1.468000         0.549686
 H        -2.657424         1.591685         3.786763
 H         0.101737         2.225059         2.375087
 H        -0.750075         0.554684         2.562639
 H         0.576133         0.061478         0.036981
 H         0.990617         2.542695         0.028756
 H        -0.050755         2.387280        -1.219513
 H        -0.580631         4.363661         1.125308
 H        -1.363843         4.424263        -0.473340
 H        -3.196128         3.609788         0.776736
 H        -3.048951         0.897317         0.020748
