19
Iteration:  1439
 O        -3.121115         1.859791         2.969198
 C        -2.096638         1.972335         1.978419
 C        -0.722852         1.321808         2.123215
 C        -0.748538         1.206975         0.626646
 O        -0.321427         0.082161         0.046995
 C        -0.179836         2.464839        -0.186910
 C        -1.058872         3.749529         0.222330
 C        -2.308186         3.036080         0.872876
 C        -2.227740         1.566463         0.498545
 H        -3.344570         0.956814         2.904069
 H         0.128141         1.883191         2.587793
 H        -0.846886         0.332385         2.586387
 H         0.548842        -0.093431         0.414859
 H         0.850681         2.800625         0.050273
 H        -0.273059         2.130578        -1.232375
 H        -0.593914         4.530967         0.838526
 H        -1.537698         4.242818        -0.648120
 H        -3.336474         3.384140         0.815276
 H        -2.985446         0.830564         0.165606
