19
Iteration:  1714
 O        -3.226327         1.972024         3.022823
 C        -2.174377         1.888361         1.946379
 C        -0.719468         1.492258         2.143154
 C        -0.609037         1.339111         0.489469
 O        -0.347693        -0.022966         0.007058
 C        -0.091421         2.554821        -0.182585
 C        -1.127792         3.615427         0.315443
 C        -2.312014         2.900526         0.852941
 C        -2.187842         1.482243         0.512446
 H        -3.249698         1.265530         3.617124
 H        -0.076380         2.202851         2.662364
 H        -0.620761         0.458043         2.582625
 H         0.537928        -0.148335        -0.388878
 H         0.972983         2.701904         0.145709
 H        -0.085545         2.151201        -1.206485
 H        -0.626173         4.146512         1.170698
 H        -1.560437         4.343506        -0.437177
 H        -3.254456         3.427962         0.957135
 H        -2.779274         0.876272        -0.148439
