19
Iteration:  2042
 O        -3.228587         1.818242         2.886245
 C        -2.088170         1.921954         1.996069
 C        -0.680521         1.535459         2.141643
 C        -0.702809         1.259452         0.543781
 O        -0.170436         0.042673         0.095136
 C        -0.328764         2.527667        -0.349809
 C        -1.036906         3.670609         0.305179
 C        -2.192157         2.967714         0.911178
 C        -2.265304         1.441006         0.609947
 H        -2.759826         1.988140         3.671015
 H        -0.239179         2.292903         2.835419
 H        -0.528292         0.507168         2.336420
 H        -0.914080        -0.425490        -0.375081
 H         0.759852         2.814766        -0.463750
 H        -0.715180         2.199521        -1.317899
 H        -0.547150         3.901589         1.249136
 H        -1.394948         4.513777        -0.302376
 H        -3.192811         3.406056         0.942212
 H        -3.121919         1.017083         0.187317
