19
Iteration:  1907charge 0 multiplicity 1
 O        -3.190563         1.936721         2.949165
 C        -2.109539         2.036205         2.019650
 C        -0.741888         1.428438         2.098614
 C        -0.780949         1.203100         0.573353
 O        -0.172484         0.020302        -0.053889
 C        -0.128083         2.422313        -0.162689
 C        -1.087357         3.716908         0.262711
 C        -2.357234         3.006264         0.971377
 C        -2.282535         1.454798         0.568400
 H        -3.104843         1.053956         3.406875
 H         0.287033         1.864381         2.190503
 H        -0.776808         0.529313         2.622995
 H         0.438575         0.131088        -0.770546
 H         0.843995         2.809200         0.049538
 H        -0.225721         2.090089        -1.226730
 H        -0.558814         4.366310         0.989401
 H        -1.407515         4.317991        -0.549299
 H        -3.354634         3.459231         0.924481
 H        -3.066600         0.733704         0.425398
