19
Iteration:   901charge 0 multiplicity 1
 O        -3.065809         1.993025         2.981714
 C        -2.221102         1.904906         1.950615
 C        -0.822274         1.376239         2.094376
 C        -0.737546         1.272581         0.498691
 O        -0.150509         0.072081         0.098497
 C        -0.189941         2.489506        -0.182770
 C        -1.002640         3.701028         0.401573
 C        -2.290846         2.915684         0.826521
 C        -2.307256         1.443932         0.537215
 H        -3.739222         1.242431         3.054127
 H        -0.268238         2.122405         2.680852
 H        -0.701627         0.288764         2.448474
 H        -0.189940         0.000409        -0.861337
 H         0.915372         2.552837        -0.170441
 H        -0.337223         2.499293        -1.272680
 H        -0.429993         4.181298         1.229416
 H        -1.210034         4.406779        -0.434091
 H        -3.236118         3.487466         0.891928
 H        -3.056211         0.813986         0.005950
