19
Iteration:  4315
 O        -3.121721         1.793495         2.967022
 C        -2.183994         1.955726         1.948475
 C        -0.724044         1.435509         2.083070
 C        -0.785649         1.232190         0.483336
 O        -0.272431         0.081503         0.069792
 C        -0.112160         2.473291        -0.159573
 C        -1.104331         3.753829         0.351111
 C        -2.338430         3.003386         0.846644
 C        -2.248862         1.472850         0.495243
 H        -2.686156         1.419386         3.719239
 H         0.055459         2.075790         2.476295
 H        -0.867527         0.412917         2.621500
 H         0.668200         0.149669        -0.050725
 H         1.025820         2.569344         0.134502
 H        -0.191146         2.347136        -1.229435
 H        -0.599768         4.351367         1.187963
 H        -1.190083         4.304744        -0.607882
 H        -3.401502         3.351168         0.764474
 H        -3.127097         0.975647         0.173559
