19
Iteration:  2908charge 0 multiplicity 1
 O        -3.067243         1.848534         3.028645
 C        -2.160043         1.976687         1.964096
 C        -0.761337         1.389818         2.002062
 C        -0.756316         1.227851         0.447341
 O        -0.031212         0.078689         0.052449
 C        -0.213133         2.496705        -0.080287
 C        -1.052860         3.685408         0.317007
 C        -2.408126         3.010233         0.837141
 C        -2.406987         1.448577         0.534986
 H        -2.675883         2.251467         3.888553
 H         0.167001         1.810463         2.445216
 H        -0.725697         0.342839         2.442075
 H        -0.488381        -0.424239        -0.670145
 H         0.854497         2.489974         0.167373
 H        -0.338660         2.426189        -1.194728
 H        -0.548207         4.387208         0.971362
 H        -1.430199         4.378505        -0.444633
 H        -3.362104         3.559098         0.907577
 H        -3.345836         0.997032         0.283321
