19
Iteration:  1900charge 0 multiplicity 1
 O        -3.181650         1.887665         2.949264
 C        -2.154272         2.026084         2.002717
 C        -0.701687         1.416225         2.041462
 C        -0.746009         1.218196         0.553623
 O        -0.201774        -0.013164         0.043662
 C        -0.141755         2.460615        -0.207451
 C        -1.097594         3.734139         0.295638
 C        -2.277331         3.012364         0.933439
 C        -2.319062         1.484500         0.557304
 H        -3.045183         1.113536         3.452141
 H         0.154818         2.108642         2.392225
 H        -0.816975         0.446008         2.603077
 H         0.277956         0.125949        -0.807345
 H         0.940678         2.769108        -0.008274
 H        -0.272444         2.219441        -1.279972
 H        -0.708167         4.373202         1.120498
 H        -1.412201         4.342179        -0.600080
 H        -3.235123         3.508409         1.037761
 H        -3.079560         0.656604         0.445773
