19
Iteration:  1070
 O        -3.030761         1.905216         3.063148
 C        -2.216279         1.932996         1.949980
 C        -0.781286         1.429770         2.071909
 C        -0.716420         1.244184         0.541882
 O        -0.172388         0.047980        -0.014901
 C        -0.136739         2.565808        -0.098405
 C        -1.026469         3.658741         0.367077
 C        -2.352903         2.914471         0.810507
 C        -2.284436         1.407842         0.479669
 H        -3.796848         2.537087         2.847392
 H        -0.007365         2.232394         2.310210
 H        -0.595222         0.370737         2.495376
 H        -1.022674        -0.430171        -0.028063
 H         0.969918         2.633659         0.094572
 H        -0.355700         2.324659        -1.143140
 H        -0.653714         4.326663         1.186437
 H        -1.306263         4.502414        -0.361779
 H        -3.293847         3.481320         0.716492
 H        -3.080617         0.798236         0.005000
