19
Iteration:  4256
 O        -3.113220         1.598194         2.927855
 C        -2.153182         1.958446         1.978238
 C        -0.714855         1.526477         2.127510
 C        -0.649176         1.346914         0.589952
 O        -0.404150         0.103979         0.043075
 C        -0.202741         2.504467        -0.253696
 C        -1.049862         3.639663         0.335766
 C        -2.306344         2.981238         0.786308
 C        -2.198326         1.521627         0.562009
 H        -3.364062         2.419503         3.383187
 H         0.211654         1.966384         2.702874
 H        -0.815773         0.604475         2.655661
 H         0.318315        -0.357434         0.563131
 H         0.813556         2.796640        -0.200867
 H        -0.411338         2.417008        -1.363587
 H        -0.546304         4.209653         1.096187
 H        -1.108613         4.433951        -0.379271
 H        -3.232515         3.517386         0.913571
 H        -2.879954         0.881068        -0.062436
