19
Iteration:  4108charge 0 multiplicity 1
 O        -3.216037         1.673873         2.963678
 C        -2.204622         1.895764         1.969265
 C        -0.753447         1.490151         2.115480
 C        -0.662770         1.325760         0.559677
 O        -0.263099        -0.034627         0.160832
 C        -0.170456         2.562921        -0.295558
 C        -1.042049         3.744617         0.324102
 C        -2.262150         3.019868         0.876204
 C        -2.190307         1.550625         0.468935
 H        -2.915844         2.159017         3.822421
 H        -0.102779         2.247838         2.650050
 H        -0.345442         0.389510         2.343175
 H        -0.914708        -0.264230        -0.546621
 H         0.918768         2.932497        -0.188016
 H        -0.316510         2.287051        -1.336647
 H        -0.518545         4.176927         1.242084
 H        -1.296719         4.446255        -0.470623
 H        -3.271185         3.373515         0.834010
 H        -2.724129         0.817935        -0.192511
