19
Iteration:   867
 O        -3.199215         2.034111         2.984605
 C        -2.208774         1.994568         2.068576
 C        -0.753311         1.311869         2.085953
 C        -0.671124         1.238600         0.446227
 O        -0.073880         0.027557        -0.081504
 C        -0.131577         2.483515        -0.097247
 C        -1.047083         3.708898         0.334469
 C        -2.371888         2.939922         0.834028
 C        -2.244102         1.452885         0.632133
 H        -3.932540         1.397128         2.760850
 H        -0.058252         2.040838         2.619672
 H        -0.536805         0.266787         2.490217
 H        -0.840117        -0.355948        -0.536401
 H         0.923645         2.535891         0.342809
 H        -0.275221         2.366184        -1.197654
 H        -0.624763         4.498910         1.091147
 H        -1.386733         4.292941        -0.549866
 H        -3.300537         3.485671         1.056503
 H        -3.033579         0.807460         0.186181
