19
Iteration:  3155
 O        -3.133261         1.689136         2.827891
 C        -2.097542         2.114133         2.014138
 C        -0.647917         1.497863         1.999816
 C        -0.720371         1.260211         0.516288
 O        -0.228916        -0.037339         0.258895
 C        -0.224485         2.473741        -0.255275
 C        -1.130358         3.683993         0.283283
 C        -2.357070         3.059069         0.924150
 C        -2.289393         1.507069         0.585165
 H        -3.123251         2.191947         3.640601
 H         0.245811         2.077020         2.370159
 H        -0.475134         0.472678         2.278917
 H        -0.041821        -0.071312        -0.729177
 H         0.890089         2.468680        -0.293867
 H        -0.501521         2.418933        -1.315080
 H        -0.577169         4.225747         1.085742
 H        -1.268923         4.341720        -0.570844
 H        -3.298647         3.447067         1.230055
 H        -3.032242         0.718647         0.470261
