19
Iteration:  4854
 O        -3.182606         1.961829         2.922151
 C        -2.148987         1.985754         2.024705
 C        -0.687604         1.357037         2.073827
 C        -0.744474         1.217049         0.460566
 O        -0.084873         0.093447        -0.006889
 C        -0.121373         2.534416        -0.136614
 C        -1.120604         3.654311         0.360380
 C        -2.321464         2.941647         0.944600
 C        -2.388879         1.460543         0.567017
 H        -3.458800         1.055482         3.218683
 H         0.200016         2.093684         2.219814
 H        -0.621306         0.452225         2.723883
 H        -0.511820        -0.415399        -0.721142
 H         0.906813         2.717478         0.224955
 H        -0.123985         2.483522        -1.236099
 H        -0.642689         4.152585         1.265163
 H        -1.339073         4.419466        -0.391907
 H        -3.316454         3.408789         1.004390
 H        -2.989279         0.825217        -0.122245
