19
Iteration:  1062
 O        -3.003230         1.930387         3.138779
 C        -2.261000         1.974818         1.942218
 C        -0.768986         1.400609         2.048687
 C        -0.674086         1.266974         0.516661
 O        -0.137931         0.030772        -0.040709
 C        -0.094291         2.526796        -0.087279
 C        -1.018524         3.724148         0.415134
 C        -2.437615         2.915890         0.755767
 C        -2.385242         1.370449         0.442404
 H        -3.873537         2.407925         3.042556
 H        -0.059485         2.098269         2.641043
 H        -0.657585         0.520417         2.634401
 H        -0.959112        -0.512535         0.093520
 H         0.973935         2.728172        -0.049431
 H        -0.203047         2.467437        -1.183868
 H        -0.478706         4.241562         1.241379
 H        -1.017748         4.271578        -0.523291
 H        -3.404215         3.423315         0.682297
 H        -2.954792         0.696181        -0.186126
