19
Iteration:  4858charge 0 multiplicity 1
 O        -3.186270         1.972346         2.935670
 C        -2.124907         1.960182         1.997871
 C        -0.686432         1.388651         2.049741
 C        -0.753886         1.219279         0.477985
 O        -0.106072         0.093493        -0.013536
 C        -0.102142         2.530235        -0.136170
 C        -1.105845         3.680206         0.371721
 C        -2.360283         2.924313         0.943141
 C        -2.374067         1.436139         0.577750
 H        -3.459789         1.051787         3.137825
 H         0.158284         1.985049         2.395371
 H        -0.655907         0.525599         2.628656
 H        -0.535221        -0.368039        -0.756594
 H         0.921894         2.760631         0.285839
 H         0.068762         2.405268        -1.205809
 H        -0.696236         4.184193         1.168711
 H        -1.409126         4.316846        -0.491816
 H        -3.268241         3.482595         1.200800
 H        -2.934042         0.821502        -0.138327
