19
Iteration:  3902
 O        -3.211636         1.643702         2.864151
 C        -2.173553         1.897084         1.961516
 C        -0.677326         1.699486         2.113525
 C        -0.796872         1.275477         0.433201
 O        -0.276535         0.077375         0.078486
 C        -0.207055         2.443604        -0.281182
 C        -0.918167         3.612196         0.384274
 C        -2.305541         3.022037         0.934880
 C        -2.262212         1.498015         0.579032
 H        -3.090304         2.063573         3.756634
 H        -0.080604         2.527246         2.421076
 H        -0.537774         0.782032         2.792378
 H         0.112517        -0.451486         0.791689
 H         0.855531         2.722195        -0.181181
 H        -0.398700         2.230884        -1.369780
 H        -0.201669         4.036931         1.143872
 H        -1.152791         4.498719        -0.273142
 H        -3.282844         3.442512         0.819109
 H        -2.912531         1.104552        -0.133100
