19
Iteration:  1012
 O        -3.058234         1.925245         3.064968
 C        -2.203584         1.858716         1.966414
 C        -0.761168         1.343299         2.091499
 C        -0.780209         1.222266         0.521354
 O        -0.158503         0.024945        -0.044298
 C        -0.118082         2.534903        -0.140287
 C        -1.123503         3.718815         0.287631
 C        -2.296252         2.989670         0.801236
 C        -2.327562         1.530214         0.541349
 H        -3.770841         2.396064         2.704237
 H         0.021192         1.751732         2.715226
 H        -0.758272         0.209609         2.438263
 H         0.246311        -0.297842         0.805695
 H         0.972265         2.560649         0.156706
 H        -0.132008         2.393744        -1.239850
 H        -0.650050         4.211775         1.127624
 H        -1.403564         4.384281        -0.529995
 H        -3.161654         3.617224         1.028491
 H        -3.148155         1.072346        -0.009582
