19
Iteration:   489
 O        -3.130954         1.874587         3.084970
 C        -2.222129         2.014000         1.915915
 C        -0.779132         1.262177         2.034527
 C        -0.770387         1.274838         0.450122
 O        -0.137502        -0.009144         0.145672
 C        -0.034116         2.534567        -0.016651
 C        -1.066623         3.727556         0.368084
 C        -2.399136         2.947825         0.781485
 C        -2.281777         1.504625         0.400943
 H        -3.446382         2.761879         3.086478
 H         0.122726         1.843847         2.354341
 H        -0.808189         0.230542         2.530565
 H        -0.240557        -0.378030        -0.769357
 H         0.961684         2.604639         0.399466
 H         0.039442         2.627364        -1.115677
 H        -0.711538         4.478678         1.039997
 H        -1.173631         4.378375        -0.535476
 H        -3.391902         3.397345         0.698093
 H        -2.995387         0.893385        -0.218621
