19
Iteration:  1182charge 0 multiplicity 1
 O        -3.074547         2.076327         3.022376
 C        -2.155625         1.924516         1.952175
 C        -0.812407         1.376730         1.998728
 C        -0.689020         1.214251         0.456392
 O        -0.170881        -0.001683        -0.005343
 C        -0.112440         2.546330        -0.147028
 C        -1.107295         3.659280         0.450089
 C        -2.335695         2.903894         0.868169
 C        -2.311755         1.467191         0.452505
 H        -3.683228         1.352568         3.224219
 H        -0.055565         2.089191         2.583687
 H        -0.827099         0.424153         2.524033
 H         0.007594        -0.555347         0.737080
 H         0.929525         2.885573        -0.034830
 H        -0.191248         2.471766        -1.251341
 H        -0.658732         4.200085         1.345765
 H        -1.478442         4.432736        -0.265542
 H        -3.297012         3.442218         0.870111
 H        -3.101386         0.840563        -0.023830
