19
Iteration:  4101charge 0 multiplicity 1
 O        -3.176967         1.642198         2.886001
 C        -2.164555         1.912246         1.995645
 C        -0.730681         1.518135         2.096290
 C        -0.676240         1.335409         0.574037
 O        -0.258353        -0.030345         0.182206
 C        -0.144710         2.578351        -0.303041
 C        -1.023704         3.720615         0.348568
 C        -2.311542         2.979199         0.816788
 C        -2.246378         1.580024         0.549632
 H        -2.754983         1.946226         3.744480
 H        -0.105451         2.154806         2.794063
 H        -0.823411         0.524402         2.476096
 H        -0.882326        -0.272949        -0.504787
 H         0.859593         2.853715        -0.257530
 H        -0.407410         2.390977        -1.409932
 H        -0.348648         4.001133         1.120642
 H        -1.271648         4.534702        -0.353664
 H        -3.317684         3.478833         0.702958
 H        -2.987526         0.980863         0.025982
