19
Iteration:   185
 O        -3.302871         1.977900         2.924852
 C        -2.202358         1.959614         1.984362
 C        -0.664601         1.487152         2.144581
 C        -0.731016         1.249938         0.572381
 O        -0.149573         0.050826        -0.014572
 C        -0.215763         2.475031        -0.170198
 C        -1.036292         3.666880         0.325532
 C        -2.280071         2.924566         0.801352
 C        -2.262243         1.387670         0.570987
 H        -3.068574         1.318731         3.645258
 H         0.151749         2.265314         2.454213
 H        -0.765942         0.505498         2.575796
 H         0.774047        -0.064139         0.236401
 H         0.864474         2.534769         0.083789
 H        -0.353591         2.165205        -1.249378
 H        -0.529598         4.133513         1.180320
 H        -1.321800         4.437157        -0.385946
 H        -3.270953         3.319564         0.512900
 H        -3.121035         0.997764        -0.008473
