19
Iteration:  3705
 O        -3.191834         1.702036         2.821623
 C        -2.159880         2.020843         2.009833
 C        -0.589374         1.549423         2.107724
 C        -0.692784         1.263188         0.527410
 O        -0.249413         0.028861         0.186495
 C        -0.299012         2.456310        -0.281863
 C        -1.064596         3.691972         0.362360
 C        -2.337032         2.999052         0.814469
 C        -2.191098         1.432100         0.678392
 H        -3.093600         2.307934         3.544160
 H         0.185337         2.329865         2.341996
 H        -0.590171         0.444528         2.526293
 H        -0.085171        -0.038779        -0.759734
 H         0.739708         2.650466        -0.663242
 H        -0.861318         2.490780        -1.207473
 H        -0.360800         4.096238         1.152797
 H        -1.236341         4.497759        -0.410562
 H        -3.278777         3.607216         0.945645
 H        -2.935706         0.832479         0.149130
