19
Iteration:   458
 O        -3.113993         1.852550         2.948941
 C        -2.291621         1.918712         1.866478
 C        -0.924034         1.269365         2.137875
 C        -0.752318         1.233441         0.522038
 O        -0.020540         0.083905         0.144664
 C        -0.101456         2.471057        -0.151360
 C        -0.999750         3.716884         0.338242
 C        -2.317039         3.058922         0.833511
 C        -2.411014         1.495713         0.513718
 H        -2.753267         2.606876         3.521047
 H        -0.047215         1.883976         2.580665
 H        -1.057586         0.290097         2.594473
 H         0.275481         0.066128        -0.768393
 H         0.924095         2.619155         0.041899
 H        -0.135881         2.298909        -1.229629
 H        -0.384100         4.198795         1.127087
 H        -1.167467         4.331403        -0.572025
 H        -3.279054         3.554824         0.967112
 H        -3.237848         1.070055        -0.119516
