19
Iteration:   372
 O        -3.091987         1.795770         3.015802
 C        -2.272973         1.886211         1.914486
 C        -0.866522         1.498929         2.078313
 C        -0.712222         1.332075         0.476010
 O        -0.327781        -0.001511         0.125211
 C        -0.027266         2.538696        -0.116510
 C        -1.021846         3.622096         0.317019
 C        -2.292938         3.019268         0.834122
 C        -2.221600         1.589231         0.434832
 H        -2.990603         0.844880         3.235306
 H        -0.187825         2.135797         2.650555
 H        -0.777322         0.509372         2.361524
 H         0.264164        -0.382351         0.783195
 H         1.019690         2.675534         0.150630
 H        -0.161916         2.388030        -1.211091
 H        -0.658073         4.376007         1.044054
 H        -1.201217         4.286009        -0.509468
 H        -3.274980         3.440949         0.593331
 H        -2.917453         1.061236        -0.251365
