19
Iteration:  3089
 O        -3.080403         1.810022         2.988378
 C        -2.114837         2.039846         1.996466
 C        -0.698770         1.539709         2.139387
 C        -0.755006         1.277773         0.554569
 O        -0.259579        -0.005172        -0.023802
 C        -0.132946         2.541386        -0.138588
 C        -1.139231         3.637102         0.316275
 C        -2.351775         2.880830         0.754310
 C        -2.244215         1.369702         0.582917
 H        -2.948735         2.349869         3.786817
 H         0.013297         2.314941         2.527541
 H        -0.633525         0.592498         2.631601
 H        -0.560757         0.084277        -0.925541
 H         0.903381         2.856708         0.081801
 H        -0.002828         2.416436        -1.203052
 H        -0.834039         4.242953         1.206245
 H        -1.391041         4.364309        -0.464877
 H        -3.353865         3.383090         0.668604
 H        -3.088715         0.947365         0.155824
