19
Iteration:  4465
 O        -3.151563         1.798087         2.917947
 C        -2.150859         2.005429         1.983257
 C        -0.653959         1.553629         1.996418
 C        -0.787815         1.283923         0.464674
 O        -0.303482        -0.110656         0.065499
 C        -0.126946         2.525986        -0.141044
 C        -1.116092         3.685777         0.400139
 C        -2.327339         3.018520         0.928713
 C        -2.233433         1.498463         0.572006
 H        -3.493104         0.854601         2.946373
 H         0.086628         2.328302         2.358193
 H        -0.352168         0.599528         2.423508
 H         0.639501        -0.105844        -0.099256
 H         0.960345         2.704371         0.102539
 H        -0.266615         2.605450        -1.346255
 H        -0.545827         4.170286         1.304409
 H        -1.380603         4.475961        -0.342783
 H        -3.348318         3.549761         0.862808
 H        -2.850917         0.833268        -0.030127
