19
Iteration:  3923
 O        -3.287563         1.657911         2.854844
 C        -2.126121         2.049703         2.027087
 C        -0.591945         1.463342         2.058407
 C        -0.721627         1.264075         0.510226
 O        -0.271433         0.002334         0.078864
 C        -0.155854         2.563359        -0.207561
 C        -1.006478         3.682379         0.294644
 C        -2.305004         2.990588         0.865978
 C        -2.311170         1.540197         0.580320
 H        -3.212925         2.260031         3.672118
 H         0.147283         2.224500         2.343007
 H        -0.662882         0.387489         2.544925
 H         0.544580        -0.308016         0.542050
 H         0.988537         2.642635        -0.193674
 H        -0.479290         2.338490        -1.264251
 H        -0.580840         4.312412         1.121805
 H        -1.429911         4.469023        -0.360017
 H        -3.246645         3.480587         0.990849
 H        -3.092896         0.855547         0.466564
