19
Iteration:  1360charge 0 multiplicity 1
 O        -3.118051         2.044521         3.020998
 C        -2.130723         1.975752         1.974828
 C        -0.869958         1.315919         2.120717
 C        -0.722334         1.234694         0.452691
 O        -0.164448         0.006591         0.012515
 C        -0.186347         2.519414        -0.162928
 C        -1.056418         3.725763         0.322231
 C        -2.319336         2.936179         0.887947
 C        -2.234400         1.410539         0.526873
 H        -3.257526         1.209119         3.468288
 H        -0.103104         1.843165         2.806994
 H        -1.065441         0.349534         2.450836
 H         0.654430         0.236175        -0.443040
 H         0.882281         2.605652        -0.217540
 H        -0.575257         2.215667        -1.169437
 H        -0.638681         4.281622         1.206388
 H        -1.337892         4.461274        -0.425128
 H        -3.263233         3.417835         0.610136
 H        -3.118993         1.026353         0.071966
