19
Iteration:  3419
 O        -2.956433         1.984430         3.082853
 C        -2.156969         1.869592         2.036200
 C        -0.779897         1.278784         2.112078
 C        -0.749675         1.220823         0.590971
 O        -0.286695         0.096868         0.015320
 C        -0.108886         2.677206        -0.033634
 C        -1.192735         3.658243         0.215099
 C        -2.327434         2.928508         0.808829
 C        -2.270615         1.323725         0.434090
 H        -3.198372         2.859187         3.112043
 H        -0.218798         1.913557         2.819112
 H        -0.672544         0.175958         2.536230
 H         0.120615         0.189281        -0.895296
 H         0.991627         2.922544         0.244621
 H        -0.003051         2.430503        -1.184505
 H        -1.104712         4.593049         0.775523
 H        -1.467818         4.034569        -0.767027
 H        -3.412972         3.176709         0.576930
 H        -2.687581         0.794892        -0.376389
