19
Iteration:  1822charge 0 multiplicity 1
 O        -3.183621         1.871705         2.950990
 C        -2.142027         2.021641         1.977395
 C        -0.686778         1.514057         2.088308
 C        -0.735218         1.278602         0.534616
 O        -0.215550         0.118639        -0.043768
 C        -0.186835         2.437381        -0.174539
 C        -1.048398         3.618656         0.365678
 C        -2.300586         2.972942         0.807965
 C        -2.253642         1.442011         0.618249
 H        -3.289468         0.929849         3.005352
 H         0.161280         2.156390         2.514992
 H        -0.573774         0.529679         2.475501
 H        -0.612189        -0.700686         0.375603
 H         0.869827         2.647695         0.029930
 H        -0.255101         2.128172        -1.231747
 H        -0.607520         4.320119         1.098648
 H        -1.342933         4.283560        -0.474014
 H        -3.199295         3.470814         1.113183
 H        -3.100696         0.855047         0.320923
