19
Iteration:  4144charge 0 multiplicity 1
 O        -3.102472         1.825210         2.944438
 C        -2.171759         1.939268         1.967596
 C        -0.761677         1.383889         2.078953
 C        -0.743360         1.303024         0.487406
 O        -0.141515         0.054760         0.032906
 C        -0.101763         2.508667        -0.071079
 C        -1.120657         3.632447         0.287207
 C        -2.326016         2.982006         0.905925
 C        -2.335782         1.456223         0.548801
 H        -3.587060         2.693587         3.210882
 H         0.072823         2.145079         2.468805
 H        -0.516529         0.332469         2.362668
 H        -0.392449        -0.056319        -0.906538
 H         0.775181         2.620987         0.492443
 H         0.136411         2.483993        -1.215246
 H        -0.690236         4.246369         1.082416
 H        -1.350425         4.379709        -0.485791
 H        -3.246050         3.660761         1.025095
 H        -3.141893         0.816521         0.233850
