19
Iteration:  1689charge 0 multiplicity 1
 O        -3.212299         1.858634         2.839610
 C        -2.119308         1.941340         1.981724
 C        -0.692707         1.406610         2.123846
 C        -0.758329         1.254141         0.545077
 O        -0.263095         0.055022         0.144041
 C        -0.219870         2.488601        -0.310309
 C        -1.007670         3.764335         0.322129
 C        -2.209601         2.981391         0.922082
 C        -2.284242         1.484473         0.647565
 H        -3.562054         0.977815         3.043056
 H         0.185086         2.119431         2.438004
 H        -0.735824         0.483441         2.638067
 H         0.671888         0.125192        -0.192694
 H         0.862741         2.331119        -0.370392
 H        -0.623498         2.239556        -1.373609
 H        -0.555469         4.353776         1.167786
 H        -1.480803         4.438918        -0.408685
 H        -3.229790         3.428610         0.885506
 H        -3.008164         0.915858         0.016054
