19
Iteration:  3969
 O        -3.094877         1.920014         3.123566
 C        -2.254701         1.852622         1.999386
 C        -0.779780         1.339259         2.122032
 C        -0.718739         1.289814         0.568479
 O        -0.266211         0.102913        -0.059748
 C        -0.018655         2.588194        -0.041423
 C        -1.119397         3.608168         0.252688
 C        -2.336029         2.883117         0.815992
 C        -2.282644         1.416983         0.407708
 H        -3.144730         2.857411         3.305151
 H        -0.021115         1.997296         2.483190
 H        -0.893728         0.334258         2.526118
 H         0.582793         0.378553        -0.410348
 H         0.892723         2.808902         0.496476
 H         0.187533         2.556440        -1.155908
 H        -0.824175         4.516956         0.828573
 H        -1.219062         4.063388        -0.777290
 H        -3.258781         3.445093         0.811445
 H        -2.991434         0.804967        -0.258810
