19
Iteration:  4202
 O        -3.023916         1.963528         3.109956
 C        -2.254914         1.806724         1.997052
 C        -0.802753         1.359869         2.072289
 C        -0.758072         1.333412         0.521587
 O        -0.228593         0.068986        -0.005693
 C        -0.042648         2.560204        -0.122455
 C        -1.066549         3.624542         0.336778
 C        -2.365589         2.826647         0.926181
 C        -2.330056         1.502110         0.360208
 H        -3.786344         2.451119         2.890102
 H         0.078830         1.978764         2.495926
 H        -0.619281         0.334254         2.308842
 H         0.690970         0.356331        -0.217945
 H         0.978811         2.690390         0.261509
 H         0.053755         2.629385        -1.233027
 H        -0.627900         4.394564         1.011618
 H        -1.426187         4.140044        -0.561626
 H        -3.334671         3.322722         0.805054
 H        -3.103123         0.892276        -0.157979
