19
Iteration:  4269
 O        -3.194080         1.618033         2.932454
 C        -2.181699         1.886322         1.979072
 C        -0.662498         1.500380         2.104485
 C        -0.730079         1.371628         0.547144
 O        -0.382850         0.052084         0.096533
 C        -0.172432         2.568096        -0.282820
 C        -0.979898         3.754027         0.258493
 C        -2.294917         2.983169         0.922487
 C        -2.217759         1.498867         0.544231
 H        -3.069692         2.236494         3.739555
 H         0.002633         2.297551         2.580915
 H        -0.491374         0.434660         2.375649
 H         0.308002        -0.311074         0.641416
 H         0.956160         2.583689        -0.148311
 H        -0.351649         2.251470        -1.285537
 H        -0.347416         4.218168         1.064523
 H        -1.430552         4.436737        -0.437434
 H        -3.243811         3.376354         0.630412
 H        -2.821415         0.876548        -0.142804
