19
Iteration:  3885
 O        -3.143894         1.631160         2.982384
 C        -2.248372         1.897322         1.920855
 C        -0.788669         1.593052         2.129284
 C        -0.695990         1.350225         0.595963
 O        -0.246742         0.030765         0.084160
 C        -0.192510         2.493795        -0.325655
 C        -0.963849         3.694515         0.390367
 C        -2.237329         2.963348         0.847270
 C        -2.270157         1.532768         0.420956
 H        -2.912319         2.255505         3.760654
 H        -0.142077         2.446029         2.539201
 H        -0.425549         0.808438         2.730599
 H        -0.541070        -0.609014         0.776266
 H         0.888296         2.420678        -0.429702
 H        -0.653274         2.448514        -1.306300
 H        -0.452447         4.167494         1.206913
 H        -1.165268         4.430541        -0.376697
 H        -3.091348         3.640096         0.776012
 H        -3.073223         0.968787        -0.133997
