19
Iteration:   431
 O        -3.392482         1.876809         2.939673
 C        -2.224016         1.975192         1.967694
 C        -0.721419         1.410889         2.137650
 C        -0.676182         1.284372         0.526936
 O        -0.246887         0.080285         0.048637
 C        -0.154601         2.469114        -0.151587
 C        -1.020217         3.667273         0.335973
 C        -2.210908         2.939977         0.837982
 C        -2.157921         1.458305         0.522832
 H        -2.966867         1.962204         3.850467
 H         0.039939         2.030532         2.562586
 H        -0.723128         0.359191         2.551998
 H         0.400350         0.085979        -0.656093
 H         0.975620         2.663750        -0.085515
 H        -0.356106         2.266306        -1.240652
 H        -0.494311         4.043988         1.185403
 H        -1.152400         4.326615        -0.510872
 H        -3.229512         3.322097         0.898171
 H        -2.873549         1.043066        -0.135326
