19
Iteration:  4577
 O        -3.044333         1.865278         3.088341
 C        -2.251192         1.861606         2.007773
 C        -0.806308         1.494580         2.127302
 C        -0.639147         1.291164         0.527553
 O        -0.392541         0.063984        -0.040436
 C        -0.085425         2.634847        -0.105704
 C        -1.052166         3.645601         0.294184
 C        -2.338024         2.922920         0.734769
 C        -2.238631         1.452140         0.511825
 H        -3.334583         0.982758         3.395772
 H        -0.034058         2.048790         2.716098
 H        -0.776397         0.382728         2.534353
 H         0.494532        -0.201992         0.224791
 H         1.046893         2.787548        -0.094703
 H        -0.240246         2.478458        -1.297400
 H        -0.554922         4.494923         1.010194
 H        -1.262415         4.245641        -0.608792
 H        -3.294778         3.327432         0.796593
 H        -2.711347         0.834583        -0.252086
