19
Iteration:  1465
 O        -3.207535         1.871589         2.985100
 C        -2.162438         1.907233         2.022003
 C        -0.745101         1.483578         2.114303
 C        -0.741126         1.224658         0.515491
 O        -0.193026         0.028856         0.067162
 C        -0.177534         2.451357        -0.358678
 C        -0.973706         3.667686         0.285583
 C        -2.278936         3.023145         0.943459
 C        -2.333555         1.556217         0.610128
 H        -3.559568         1.040464         2.748344
 H         0.019868         2.009141         2.648864
 H        -0.685875         0.345623         2.318171
 H         0.749089         0.187982         0.061258
 H         0.890418         2.734089        -0.236037
 H        -0.413968         2.350948        -1.418553
 H        -0.492097         4.165212         1.105456
 H        -1.243567         4.440389        -0.448526
 H        -3.304440         3.385593         0.969204
 H        -3.185694         1.047579         0.195344
