19
Iteration:  4684
 O        -3.049299         1.971839         3.013420
 C        -2.166065         1.956601         1.924895
 C        -0.762855         1.400881         2.040029
 C        -0.809604         1.239552         0.453175
 O        -0.157291         0.036945         0.078601
 C        -0.123167         2.547038        -0.033891
 C        -1.093116         3.681407         0.375586
 C        -2.377143         2.888578         0.778243
 C        -2.370947         1.419911         0.512415
 H        -2.660535         1.253040         3.565871
 H         0.036524         2.054269         2.425787
 H        -0.735497         0.263360         2.296850
 H        -0.032395         0.042346        -0.864438
 H         0.845252         2.720801         0.456948
 H         0.024879         2.689841        -1.101247
 H        -0.684571         4.277951         1.205630
 H        -1.218295         4.467658        -0.379764
 H        -3.308308         3.403251         0.860792
 H        -3.110200         0.958599        -0.178833
