19
Iteration:   172
 O        -3.162236         2.028903         2.942854
 C        -2.214463         2.009873         1.954618
 C        -0.794058         1.458096         2.072403
 C        -0.723116         1.243308         0.502623
 O        -0.126131         0.029058         0.021536
 C        -0.109770         2.514778        -0.172099
 C        -1.104778         3.548192         0.364739
 C        -2.386537         2.918362         0.846108
 C        -2.282199         1.422845         0.528249
 H        -3.168146         1.167068         3.363827
 H         0.005212         1.990414         2.720275
 H        -0.626977         0.532280         2.603455
 H         0.528352        -0.108617         0.748068
 H         0.945989         2.822821         0.000889
 H        -0.197937         2.548830        -1.292261
 H        -0.661747         4.155000         1.203294
 H        -1.273362         4.333595        -0.433557
 H        -3.287725         3.495838         0.824093
 H        -2.857067         0.633889         0.025039
