19
Iteration:  4982
 O        -3.127699         1.932000         2.992209
 C        -2.145972         1.919947         1.975785
 C        -0.713871         1.475928         2.085973
 C        -0.726316         1.328805         0.501456
 O        -0.186918         0.057605         0.082184
 C        -0.292104         2.565870        -0.190114
 C        -1.041877         3.654521         0.482830
 C        -2.313590         2.898157         0.730676
 C        -2.193161         1.426128         0.519762
 H        -3.688111         1.092055         2.980446
 H        -0.024051         1.908994         2.773632
 H        -0.711684         0.384157         2.473153
 H        -0.391852        -0.185401        -0.838794
 H         0.781548         2.591607        -0.308456
 H        -0.600375         2.423949        -1.364434
 H        -0.334054         3.945750         1.337900
 H        -1.182256         4.633325         0.044455
 H        -3.317140         3.268744         0.754237
 H        -2.949337         0.759094         0.048960
