19
Iteration:  1989charge 0 multiplicity 1
 O        -3.021149         1.877854         2.998190
 C        -2.130791         1.921785         1.939141
 C        -0.752664         1.473933         2.079912
 C        -0.818969         1.210015         0.486114
 O        -0.218590         0.032121         0.022814
 C        -0.171943         2.531865        -0.153433
 C        -1.032702         3.735100         0.287058
 C        -2.401878         3.005703         0.823443
 C        -2.351081         1.447439         0.548255
 H        -2.683540         1.187297         3.532281
 H         0.143242         1.967778         2.456861
 H        -0.697716         0.424059         2.570876
 H        -0.029376        -0.393902         0.901407
 H         0.824108         2.669757         0.387073
 H         0.059338         2.533198        -1.212800
 H        -0.821254         4.471604         1.089193
 H        -1.201943         4.383981        -0.642487
 H        -3.421898         3.405146         0.732507
 H        -2.998764         0.764256         0.076155
