19
Iteration:  2825
 O        -3.087013         1.812166         3.076456
 C        -2.204221         2.016025         2.014174
 C        -0.724787         1.505713         2.002023
 C        -0.790535         1.221609         0.485648
 O        -0.231489         0.039973        -0.079513
 C        -0.161644         2.453731        -0.146642
 C        -1.047855         3.658808         0.291778
 C        -2.333367         3.020997         0.913483
 C        -2.308654         1.544269         0.603246
 H        -3.011423         0.853343         3.187153
 H         0.117770         2.107037         2.290288
 H        -0.690625         0.500335         2.417816
 H         0.619217        -0.019319         0.405520
 H         0.915768         2.458769         0.055899
 H        -0.241307         2.281077        -1.234391
 H        -0.537770         4.385610         0.955098
 H        -1.535484         4.050260        -0.608515
 H        -3.216249         3.581200         0.878323
 H        -3.057578         0.997173         0.100026
