19
Iteration:   990
 O        -3.194715         1.783626         3.004855
 C        -2.135689         1.995429         1.986244
 C        -0.720030         1.414704         2.098378
 C        -0.679761         1.219195         0.570876
 O        -0.330385         0.054337        -0.028484
 C        -0.129649         2.575187        -0.217298
 C        -1.014522         3.718318         0.259041
 C        -2.315233         2.976485         0.958830
 C        -2.202378         1.452452         0.542801
 H        -3.687940         2.680662         2.957261
 H         0.129938         1.814493         2.630393
 H        -0.963149         0.382121         2.564047
 H         0.217798        -0.512048         0.510687
 H         0.945274         2.677132        -0.008383
 H        -0.216332         2.438546        -1.325543
 H        -0.543493         4.493220         0.848729
 H        -1.427411         4.086938        -0.678933
 H        -3.352131         3.311486         0.891018
 H        -2.915051         0.874715        -0.034514
