19
Iteration:  3327charge 0 multiplicity 1
 O        -3.004758         1.708612         3.075920
 C        -2.136136         1.961401         1.978986
 C        -0.765604         1.479058         2.029045
 C        -0.701146         1.275782         0.470669
 O        -0.273661        -0.007214         0.300362
 C        -0.224059         2.588920        -0.328558
 C        -1.077673         3.769519         0.351786
 C        -2.268339         2.932499         0.778785
 C        -2.199976         1.458593         0.489385
 H        -3.963331         1.980039         2.770559
 H        -0.042487         2.229009         2.509937
 H        -0.792836         0.559268         2.515122
 H        -0.795969        -0.352287        -0.425812
 H         0.812609         2.898273        -0.586977
 H        -0.712109         2.648252        -1.349822
 H        -0.482388         4.285520         1.195572
 H        -1.305719         4.626704        -0.335075
 H        -3.240022         3.380177         0.655385
 H        -3.112620         0.801576         0.167263
