19
Iteration:  2275charge 0 multiplicity 1
 O        -3.103753         1.919175         3.142177
 C        -2.182846         1.992453         2.037099
 C        -0.619830         1.417159         2.093493
 C        -0.703366         1.223416         0.658115
 O        -0.309506         0.128787        -0.186701
 C        -0.205216         2.434189        -0.181872
 C        -1.125741         3.671282         0.163179
 C        -2.268788         2.971948         0.886844
 C        -2.297796         1.432748         0.627312
 H        -3.604372         1.106106         3.001748
 H         0.169198         2.026315         2.530877
 H        -0.642366         0.417885         2.652642
 H         0.664249         0.145203        -0.061572
 H         0.809306         2.746295         0.063055
 H        -0.346606         2.216630        -1.230632
 H        -0.557628         4.451346         0.580741
 H        -1.477013         3.934285        -0.825695
 H        -3.205615         3.574320         0.852455
 H        -2.938434         0.780877         0.106432
