19
Iteration:  1060
 O        -2.995569         1.935729         3.156317
 C        -2.263598         1.972289         1.934956
 C        -0.771419         1.408166         2.043862
 C        -0.670469         1.274979         0.509512
 O        -0.138139         0.030266        -0.042540
 C        -0.091912         2.512308        -0.094486
 C        -1.021338         3.727852         0.421048
 C        -2.442337         2.915847         0.744028
 C        -2.391802         1.375225         0.441584
 H        -3.915062         2.390641         3.088006
 H        -0.058022         2.071477         2.700767
 H        -0.735700         0.476008         2.702896
 H        -0.844175        -0.611941         0.081009
 H         0.998744         2.744575        -0.006915
 H        -0.178554         2.513449        -1.189011
 H        -0.495729         4.214261         1.280214
 H        -0.992457         4.267523        -0.555825
 H        -3.428891         3.406361         0.675773
 H        -2.946259         0.710005        -0.239472
