19
Iteration:  1814charge 0 multiplicity 1
 O        -3.184708         1.915953         2.921280
 C        -2.136381         1.937435         2.035277
 C        -0.660627         1.477000         2.142173
 C        -0.727738         1.272326         0.537789
 O        -0.189091         0.133774        -0.089399
 C        -0.171676         2.476264        -0.168037
 C        -1.057191         3.599870         0.275411
 C        -2.310614         2.949150         0.886856
 C        -2.318766         1.498135         0.603576
 H        -3.488565         1.030278         3.192592
 H         0.077641         2.003494         2.724523
 H        -0.696223         0.392348         2.554934
 H        -0.453975        -0.578723         0.565692
 H         0.931961         2.671315        -0.015952
 H        -0.425631         2.400012        -1.228187
 H        -0.584726         4.298630         0.994584
 H        -1.195207         4.068741        -0.746149
 H        -3.181572         3.613652         0.984318
 H        -2.984677         0.673294         0.261453
