19
Iteration:  3905charge 0 multiplicity 1
 O        -3.219098         1.651344         2.842746
 C        -2.164199         1.900366         1.975071
 C        -0.681986         1.670358         2.090910
 C        -0.792621         1.297565         0.451598
 O        -0.270252         0.058948         0.068305
 C        -0.195062         2.426849        -0.298646
 C        -0.953152         3.630704         0.398866
 C        -2.307593         3.024645         0.922908
 C        -2.260880         1.510908         0.627125
 H        -3.169830         2.035877         3.788738
 H         0.000779         2.425652         2.463916
 H        -0.423646         0.876464         2.681273
 H         0.205311        -0.404941         0.803913
 H         0.809217         2.660915        -0.126090
 H        -0.320091         2.284234        -1.377184
 H        -0.269601         4.033807         1.145755
 H        -1.110258         4.472759        -0.330048
 H        -3.239622         3.538366         0.785675
 H        -2.976749         1.044399        -0.074468
