19
Iteration:  1638charge 0 multiplicity 1
 O        -3.060452         1.823677         3.101832
 C        -2.231655         1.910743         1.933468
 C        -0.786336         1.580398         2.041062
 C        -0.768286         1.279160         0.531639
 O        -0.350094         0.070620         0.109987
 C        -0.197881         2.535473        -0.196987
 C        -0.927762         3.670301         0.341985
 C        -2.222378         2.905217         0.801049
 C        -2.286161         1.411510         0.459897
 H        -3.893136         1.234456         2.959262
 H        -0.180926         2.342411         2.457188
 H        -0.480765         0.529413         2.333786
 H         0.621851        -0.078430         0.299911
 H         0.902182         2.684397         0.006063
 H        -0.221833         2.448741        -1.263022
 H        -0.529441         4.172660         1.247581
 H        -1.023224         4.534383        -0.380009
 H        -3.257501         3.301663         0.695574
 H        -2.908452         0.886010        -0.321897
