19
Iteration:  2905
 O        -3.060799         1.864591         3.040712
 C        -2.186493         1.971356         1.937356
 C        -0.763081         1.364256         1.995063
 C        -0.749597         1.237458         0.428094
 O        -0.032988         0.052813         0.047771
 C        -0.204994         2.507244        -0.082284
 C        -1.078994         3.693875         0.317804
 C        -2.391312         2.990747         0.858387
 C        -2.392958         1.463785         0.570336
 H        -2.730253         2.362240         3.765949
 H         0.100673         1.888841         2.489738
 H        -0.724206         0.378598         2.430598
 H        -0.468642        -0.416750        -0.695794
 H         0.891808         2.542847         0.168642
 H        -0.268988         2.395972        -1.202556
 H        -0.617145         4.432705         1.016864
 H        -1.358666         4.423451        -0.453700
 H        -3.393356         3.536389         0.968889
 H        -3.295970         0.908216         0.161332
