19
Iteration:  4839charge 0 multiplicity 1
 O        -3.198037         1.941301         2.987279
 C        -2.177128         1.886926         1.956166
 C        -0.729150         1.414138         2.057552
 C        -0.754989         1.253871         0.521172
 O        -0.034695         0.057237         0.024424
 C        -0.275347         2.526109        -0.177513
 C        -1.024091         3.675960         0.437624
 C        -2.313147         2.958184         0.842720
 C        -2.262405         1.502650         0.519852
 H        -3.169997         1.005506         3.385413
 H        -0.042985         2.004534         2.652702
 H        -0.582750         0.317181         2.444799
 H        -0.671108        -0.293536        -0.654786
 H         0.799456         2.610758        -0.131854
 H        -0.509340         2.401921        -1.279564
 H        -0.474216         4.194877         1.307663
 H        -1.290065         4.400131        -0.355661
 H        -3.249801         3.490810         0.646944
 H        -3.223083         1.162166         0.270376
