19
Iteration:  2661
 O        -2.971586         1.909799         3.168613
 C        -2.221931         1.964765         2.058777
 C        -0.712668         1.495648         2.028355
 C        -0.753903         1.199981         0.527673
 O        -0.292618         0.060391        -0.106882
 C        -0.088698         2.435549        -0.054754
 C        -1.091020         3.605928         0.240862
 C        -2.342839         2.985535         0.908800
 C        -2.324666         1.518304         0.468088
 H        -3.843175         1.472355         2.892781
 H         0.054423         2.214763         2.365301
 H        -0.484751         0.548113         2.522725
 H         0.273567         0.388258        -0.859884
 H         0.936004         2.478902         0.324133
 H        -0.086745         2.288748        -1.181975
 H        -0.728063         4.335996         0.952695
 H        -1.520577         4.003284        -0.650844
 H        -3.430588         3.333422         0.888062
 H        -3.090759         0.825003        -0.002094
