19
Iteration:  2580
 O        -3.070976         1.871983         3.071942
 C        -2.183438         1.861395         1.959916
 C        -0.665876         1.593127         2.033444
 C        -0.776889         1.275982         0.435959
 O        -0.378240        -0.047991        -0.002947
 C        -0.175435         2.553774        -0.261432
 C        -1.006943         3.709278         0.377088
 C        -2.300139         2.954302         0.829444
 C        -2.267123         1.460778         0.562109
 H        -2.997910         1.038492         3.663402
 H        -0.046296         2.403063         2.275860
 H        -0.233401         0.818276         2.685524
 H        -0.101237        -0.647649         0.746722
 H         0.925347         2.611152        -0.199474
 H        -0.397206         2.566935        -1.347113
 H        -0.574881         4.222970         1.257217
 H        -1.288974         4.584527        -0.270094
 H        -3.205833         3.334991         1.200141
 H        -2.968679         0.858656        -0.001553
