19
Iteration:  2153charge 0 multiplicity 1
 O        -3.108327         2.057669         2.934816
 C        -2.011071         1.967868         2.021669
 C        -0.681559         1.295728         2.060506
 C        -0.713074         1.232592         0.537991
 O        -0.263281         0.038562        -0.175599
 C        -0.192510         2.541030        -0.042628
 C        -1.164506         3.654688         0.211516
 C        -2.351752         2.954946         0.953146
 C        -2.263983         1.491719         0.627202
 H        -3.242461         1.177255         3.426623
 H         0.110244         1.802301         2.626054
 H        -0.724671         0.241443         2.431957
 H         0.166401        -0.569652         0.412669
 H         0.781136         2.910215         0.372666
 H        -0.110259         2.362515        -1.100943
 H        -0.879295         4.491940         0.828881
 H        -1.674864         4.166041        -0.640609
 H        -3.384137         3.287108         1.041371
 H        -3.131927         0.819016         0.371007
