19
Iteration:  1872charge 0 multiplicity 1
 O        -3.032330         1.836790         3.017916
 C        -2.230374         1.863836         1.947918
 C        -0.727499         1.463777         2.037501
 C        -0.759327         1.333440         0.480376
 O        -0.295194         0.055386         0.285847
 C        -0.139419         2.531365        -0.297788
 C        -1.049056         3.709406         0.354330
 C        -2.294135         2.944903         0.918268
 C        -2.260483         1.512318         0.369622
 H        -3.096284         0.953373         3.430083
 H        -0.022168         2.193567         2.425092
 H        -0.593353         0.471260         2.539238
 H        -0.790721        -0.310462        -0.474244
 H         0.922659         2.748110        -0.165645
 H        -0.278519         2.282643        -1.368731
 H        -0.539030         4.128804         1.222534
 H        -1.225940         4.556659        -0.303215
 H        -3.334335         3.304772         0.843833
 H        -2.856727         0.971297        -0.359870
