19
Iteration:  2427
 O        -3.084293         1.818033         3.032759
 C        -2.136994         1.859124         1.975920
 C        -0.601968         1.454151         2.047230
 C        -0.759812         1.318398         0.497678
 O        -0.326037        -0.039446         0.309675
 C        -0.296148         2.625131        -0.391258
 C        -1.028277         3.734439         0.257065
 C        -2.272780         2.994674         0.942688
 C        -2.287255         1.505379         0.478517
 H        -3.263266         0.874914         3.300934
 H         0.158268         2.153820         2.424207
 H        -0.387038         0.351616         2.315501
 H        -0.284152        -0.292065        -0.607206
 H         0.845206         2.707240        -0.312254
 H        -0.417077         2.451081        -1.469427
 H        -0.549232         4.273677         1.089410
 H        -1.294038         4.484744        -0.526445
 H        -3.220503         3.551888         1.197411
 H        -3.006418         0.970231        -0.208436
