19
Iteration:   116
 O        -3.046310         1.823435         3.060299
 C        -2.270124         1.980152         1.937315
 C        -0.760232         1.534872         2.119093
 C        -0.649032         1.268799         0.558888
 O        -0.108947         0.095915         0.027480
 C        -0.017666         2.455280        -0.088647
 C        -1.189672         3.645620         0.163888
 C        -2.365949         2.931390         0.829837
 C        -2.317875         1.425583         0.511615
 H        -3.836699         2.378797         3.009101
 H        -0.019256         2.203762         2.845556
 H        -0.882508         0.471973         2.393311
 H        -0.826100        -0.529670         0.172215
 H         0.866915         2.834533         0.441630
 H         0.073498         2.228349        -1.141973
 H        -0.693951         4.334530         0.903956
 H        -1.468466         4.170047        -0.803945
 H        -3.315390         3.322069         0.576120
 H        -3.133079         0.852645         0.178959
