19
Iteration:  2050charge 0 multiplicity 1
 O        -3.165336         1.815981         2.858947
 C        -2.105734         1.962264         1.986415
 C        -0.669895         1.487459         2.123568
 C        -0.688200         1.306360         0.537192
 O        -0.191190         0.050935         0.145896
 C        -0.288524         2.516680        -0.339904
 C        -1.058774         3.628217         0.347786
 C        -2.281263         2.931840         0.919833
 C        -2.288212         1.470838         0.580496
 H        -3.040570         2.122275         3.754761
 H         0.246060         2.111343         2.374638
 H        -0.650223         0.484937         2.562961
 H        -0.824802        -0.344662        -0.484440
 H         0.732887         2.812085        -0.484877
 H        -0.724811         2.431829        -1.367117
 H        -0.455783         4.061718         1.201284
 H        -1.234128         4.447591        -0.319724
 H        -3.251329         3.415666         0.973462
 H        -3.100943         0.818187         0.210065
