19
Iteration:  1680
 O        -3.200449         1.821854         2.875730
 C        -2.124517         2.000689         1.993913
 C        -0.708542         1.440126         2.073330
 C        -0.758167         1.305162         0.540687
 O        -0.191518        -0.020923         0.133436
 C        -0.306735         2.431790        -0.256576
 C        -1.032363         3.707192         0.352562
 C        -2.238045         3.054352         0.890186
 C        -2.253699         1.504932         0.590081
 H        -3.441803         0.914251         2.620010
 H         0.085738         2.090865         2.544031
 H        -0.757581         0.503120         2.599294
 H         0.773452         0.165994        -0.038893
 H         0.809067         2.464977        -0.389559
 H        -0.717139         2.033283        -1.218258
 H        -0.292143         4.217138         1.034447
 H        -1.329010         4.550847        -0.347147
 H        -3.160007         3.656240         1.027938
 H        -3.217560         1.136407         0.177368
