19
Iteration:   270
 O        -3.048318         1.747707         2.980673
 C        -2.243461         2.000743         1.955957
 C        -0.863543         1.462296         2.065338
 C        -0.726760         1.288078         0.529376
 O        -0.166067         0.021882         0.135553
 C        -0.030630         2.510313        -0.077828
 C        -1.075309         3.656145         0.286135
 C        -2.359452         2.981273         0.820318
 C        -2.261744         1.535685         0.412237
 H        -3.513941         2.528373         3.309220
 H        -0.237198         2.275377         2.463781
 H        -0.735800         0.587367         2.724537
 H        -0.836196        -0.613615        -0.214335
 H         0.985848         2.562027         0.323653
 H         0.093509         2.254170        -1.128668
 H        -0.568569         4.116153         1.176782
 H        -1.273990         4.292529        -0.634739
 H        -3.381137         3.358309         0.837767
 H        -2.944006         0.985675        -0.252523
