19
Iteration:  2223charge 0 multiplicity 1
 O        -2.991423         1.812745         2.972107
 C        -2.141020         1.968026         1.975336
 C        -0.643372         1.531438         1.952367
 C        -0.779832         1.297173         0.442773
 O        -0.288894        -0.052009         0.272135
 C        -0.307164         2.479690        -0.232067
 C        -1.047574         3.733748         0.422093
 C        -2.363602         2.947568         0.854154
 C        -2.278321         1.543886         0.475273
 H        -2.794922         0.932721         3.430426
 H         0.100733         2.236611         2.227514
 H        -0.507024         0.569330         2.448566
 H        -0.317028        -0.194267        -0.687534
 H         0.757138         2.597665        -0.257901
 H        -0.807534         2.499720        -1.228225
 H        -0.506573         4.055446         1.350540
 H        -0.884392         4.534051        -0.322653
 H        -3.348117         3.483309         0.757792
 H        -3.057348         0.973993         0.065615
