19
Iteration:   146charge 0 multiplicity 1
 O        -2.950338         1.994447         3.078886
 C        -2.247060         1.890832         1.867508
 C        -0.756143         1.383718         2.059637
 C        -0.763085         1.230465         0.548661
 O        -0.140192         0.044268         0.140521
 C        -0.156283         2.575835        -0.059319
 C        -1.157214         3.738502         0.268476
 C        -2.326924         2.892469         0.728818
 C        -2.327837         1.417538         0.393828
 H        -3.725945         1.411421         3.092434
 H        -0.085881         1.922826         2.570094
 H        -0.593206         0.414286         2.535082
 H        -0.214762        -0.438660         1.005765
 H         0.826632         2.839579         0.305327
 H        -0.125220         2.478569        -1.118597
 H        -0.785115         4.315099         1.136785
 H        -1.358091         4.483013        -0.526273
 H        -3.313241         3.359285         0.518076
 H        -2.933459         0.925491        -0.359399
