19
Iteration:  2967
 O        -3.127503         1.836155         3.013670
 C        -2.071553         1.845228         2.018622
 C        -0.608616         1.536877         2.029218
 C        -0.696654         1.299251         0.459815
 O        -0.362832        -0.036281         0.242321
 C        -0.193842         2.628574        -0.257693
 C        -1.172178         3.704853         0.350327
 C        -2.305072         2.893506         0.888005
 C        -2.151363         1.473874         0.491062
 H        -3.794423         1.308288         2.653848
 H        -0.051484         2.474068         2.149765
 H        -0.240655         0.625759         2.477535
 H        -0.557051        -0.340178        -0.687905
 H         0.889368         2.770575        -0.208532
 H        -0.355229         2.547290        -1.319962
 H        -0.507471         4.167790         1.121659
 H        -1.580957         4.433244        -0.438148
 H        -3.237570         3.490528         1.027297
 H        -2.904847         1.012326        -0.243514
