19
Iteration:  1880charge 0 multiplicity 1
 O        -3.077177         1.853665         2.974027
 C        -2.145162         1.843641         1.962898
 C        -0.717131         1.469071         2.122789
 C        -0.787716         1.354498         0.472681
 O        -0.283887         0.016919         0.228897
 C        -0.191016         2.557830        -0.260125
 C        -1.004437         3.666604         0.331034
 C        -2.337011         2.963867         0.871625
 C        -2.272530         1.511243         0.480280
 H        -3.006184         0.991971         3.491100
 H         0.083728         2.071567         2.459787
 H        -0.584132         0.354218         2.309445
 H        -0.301122        -0.418619        -0.612557
 H         0.859388         2.875402        -0.033654
 H        -0.319826         2.430708        -1.330581
 H        -0.450927         4.200134         1.116979
 H        -1.295684         4.379730        -0.496293
 H        -3.329648         3.406410         0.769488
 H        -3.000661         1.259386        -0.321097
