19
Iteration:   382charge 0 multiplicity 1
 O        -3.139436         1.767751         2.915620
 C        -2.241962         1.939774         1.894383
 C        -0.681461         1.492530         2.038100
 C        -0.771135         1.294423         0.622882
 O        -0.380815         0.009905         0.112459
 C        -0.062389         2.506837        -0.113254
 C        -1.015646         3.698470         0.350132
 C        -2.327428         3.006303         0.854764
 C        -2.240052         1.541652         0.426429
 H        -2.918778         1.038065         3.484114
 H         0.053234         2.215442         2.454637
 H        -0.664353         0.622130         2.651201
 H         0.339645        -0.326901         0.687705
 H         0.957721         2.577025         0.204367
 H        -0.092774         2.441358        -1.215895
 H        -0.482458         4.344620         1.121645
 H        -1.304560         4.311599        -0.537516
 H        -3.315389         3.407969         0.588201
 H        -2.760021         1.045350        -0.409776
