19
Iteration:  4126charge 0 multiplicity 1
 O        -3.215177         1.757637         2.986456
 C        -2.186955         1.810022         1.971644
 C        -0.669659         1.452741         2.066595
 C        -0.721784         1.283470         0.498239
 O        -0.234485         0.072473         0.113174
 C        -0.109932         2.570649        -0.148982
 C        -1.053255         3.717858         0.320958
 C        -2.280656         2.913886         0.926875
 C        -2.251560         1.494297         0.469035
 H        -3.066866         2.699982         3.384784
 H        -0.075628         2.228129         2.436149
 H        -0.743402         0.634989         2.717470
 H        -0.714799        -0.263711        -0.672110
 H         1.002629         2.588813        -0.013560
 H        -0.299095         2.549178        -1.212758
 H        -0.450486         4.449589         0.880737
 H        -1.548246         4.066290        -0.606552
 H        -3.196779         3.478374         0.866289
 H        -3.005266         1.237298        -0.256063
