19
Iteration:   679charge 0 multiplicity 1
 O        -3.133011         1.868457         3.087962
 C        -2.207291         2.018478         1.978963
 C        -0.863162         1.283661         2.058781
 C        -0.724083         1.283234         0.492332
 O        -0.185601        -0.037935         0.126996
 C         0.026097         2.500193        -0.072844
 C        -1.056186         3.736378         0.255146
 C        -2.302684         2.993114         0.890527
 C        -2.313838         1.627618         0.347911
 H        -3.364832         0.895215         3.254228
 H        -0.085254         1.716602         2.775947
 H        -0.762815         0.229003         2.026392
 H        -0.571467        -0.094491        -0.750763
 H         0.904551         2.928420         0.418598
 H         0.178304         2.423035        -1.145548
 H        -0.663411         4.504208         1.004042
 H        -1.458630         4.256822        -0.593920
 H        -3.343893         3.375283         0.833106
 H        -3.016568         1.048027        -0.298658
