19
Iteration:  3117charge 0 multiplicity 1
 O        -3.122791         1.658512         3.107594
 C        -2.184168         1.826779         1.999808
 C        -0.775530         1.492422         2.065705
 C        -0.775432         1.372067         0.568063
 O        -0.205418         0.060591         0.190087
 C        -0.122210         2.478033        -0.270054
 C        -0.999560         3.715191         0.147767
 C        -2.313992         2.996724         0.853613
 C        -2.279025         1.556893         0.473320
 H        -3.002563         2.260809         3.807600
 H        -0.180138         2.328882         2.455040
 H        -0.461313         0.489445         2.482758
 H        -0.710217        -0.224148        -0.602751
 H         0.948764         2.734245        -0.210309
 H        -0.397016         2.114743        -1.322466
 H        -0.569854         4.452225         0.822508
 H        -1.384269         4.315148        -0.699047
 H        -3.185610         3.655703         1.033666
 H        -2.984979         0.978097        -0.214982
