19
Iteration:  1151charge 0 multiplicity 1
 O        -3.093083         1.800188         3.016192
 C        -2.171162         1.963787         1.901779
 C        -0.797934         1.509507         2.025907
 C        -0.673950         1.249357         0.487941
 O        -0.262395         0.079962         0.061238
 C        -0.125087         2.445596        -0.153443
 C        -0.987543         3.649457         0.374504
 C        -2.335808         3.027722         0.794212
 C        -2.366715         1.494743         0.481956
 H        -2.709888         1.205212         3.698664
 H        -0.171549         2.323298         2.545248
 H        -0.706819         0.678099         2.684485
 H        -0.382667        -0.552607         0.823760
 H         0.846145         2.782175         0.149199
 H        -0.120932         2.265753        -1.257670
 H        -0.521971         4.230453         1.183554
 H        -1.319157         4.314027        -0.399402
 H        -3.237964         3.648491         0.800693
 H        -3.070837         0.820948        -0.069735
