19
Iteration:  4453charge 0 multiplicity 1
 O        -3.175635         1.791138         2.923836
 C        -2.128002         1.918272         1.984667
 C        -0.617693         1.576880         1.965913
 C        -0.677745         1.282359         0.464533
 O        -0.388303        -0.013668         0.129874
 C        -0.109471         2.539650        -0.208346
 C        -1.037449         3.687283         0.454566
 C        -2.354695         2.942342         0.937244
 C        -2.315609         1.504644         0.495762
 H        -3.201826         0.784539         2.999486
 H         0.185637         2.343045         2.176983
 H        -0.512572         0.721461         2.554470
 H         0.584832        -0.091449         0.119011
 H         0.908180         2.639749         0.192258
 H        -0.031410         2.460270        -1.390091
 H        -0.594153         4.433982         1.187495
 H        -1.373314         4.306532        -0.429540
 H        -3.431940         3.401479         0.867274
 H        -3.212273         1.020333         0.095407
