19
Iteration:  4790charge 0 multiplicity 1
 O        -3.128512         1.822867         2.995003
 C        -2.192657         1.873698         1.936673
 C        -0.705199         1.505598         1.963316
 C        -0.741896         1.322909         0.441646
 O        -0.230038        -0.053816         0.207996
 C        -0.143357         2.534666        -0.177316
 C        -1.017908         3.743115         0.418825
 C        -2.372110         3.013601         0.880694
 C        -2.325446         1.475634         0.474056
 H        -3.026709         0.933886         3.315129
 H         0.058490         2.176066         2.388555
 H        -0.584923         0.618113         2.400942
 H         0.079288        -0.074845        -0.694620
 H         0.973426         2.506851        -0.086477
 H        -0.395460         2.634391        -1.215583
 H        -0.590420         4.159428         1.266829
 H        -1.219628         4.478873        -0.364856
 H        -3.209508         3.701594         1.040269
 H        -2.950339         0.807204        -0.182929
