19
Iteration:  2426charge 0 multiplicity 1
 O        -3.090563         1.816944         3.033199
 C        -2.138850         1.855663         1.977085
 C        -0.594519         1.458738         2.049832
 C        -0.759667         1.311792         0.498777
 O        -0.328743        -0.036623         0.308318
 C        -0.310307         2.622995        -0.393201
 C        -1.021175         3.729114         0.255181
 C        -2.257380         2.991173         0.947254
 C        -2.284717         1.505526         0.472875
 H        -3.299234         0.910675         3.288192
 H         0.146313         2.156341         2.453431
 H        -0.378837         0.379611         2.342109
 H        -0.261398        -0.245672        -0.628895
 H         0.831423         2.734073        -0.354979
 H        -0.411477         2.432954        -1.470989
 H        -0.570363         4.292012         1.121047
 H        -1.317976         4.493263        -0.530810
 H        -3.212548         3.547658         1.197361
 H        -2.999729         0.992882        -0.197779
