19
Iteration:  4919charge 0 multiplicity 1
 O        -3.057357         1.844557         3.003092
 C        -2.170819         1.918043         1.955852
 C        -0.788217         1.323026         2.009729
 C        -0.770228         1.277314         0.458593
 O        -0.227974         0.053905         0.099459
 C        -0.078696         2.587525        -0.024176
 C        -1.113293         3.658077         0.258641
 C        -2.346048         3.014277         0.862052
 C        -2.287959         1.555780         0.540495
 H        -2.726901         0.959546         3.429791
 H        -0.054241         2.020539         2.536369
 H        -1.000275         0.315390         2.505937
 H         0.129559        -0.138270        -0.800086
 H         0.844410         2.902117         0.465411
 H         0.089445         2.389321        -1.105311
 H        -0.797829         4.626673         0.819205
 H        -1.494590         4.100549        -0.662013
 H        -3.280369         3.485877         0.624623
 H        -3.061736         0.836429         0.178610
