19
Iteration:  1147charge 0 multiplicity 1
 O        -3.091963         1.777793         2.982577
 C        -2.193840         1.946671         1.917795
 C        -0.798762         1.541513         2.053256
 C        -0.705148         1.258122         0.534838
 O        -0.262496         0.076257         0.053841
 C        -0.083893         2.456300        -0.176859
 C        -1.014764         3.619398         0.340977
 C        -2.314702         3.022244         0.819883
 C        -2.361658         1.542121         0.486193
 H        -2.546814         1.265760         3.640991
 H        -0.150034         2.323526         2.593472
 H        -0.770789         0.572557         2.651245
 H        -0.434349        -0.583979         0.710337
 H         0.955252         2.766174         0.103413
 H        -0.258896         2.241710        -1.242590
 H        -0.541034         4.216808         1.164023
 H        -1.232775         4.392710        -0.482640
 H        -3.246594         3.576566         0.840381
 H        -3.012189         0.807786         0.077756
