19
Iteration:  2906
 O        -3.062725         1.859527         3.036818
 C        -2.178248         1.973349         1.945321
 C        -0.763230         1.372854         1.997100
 C        -0.750458         1.234901         0.432372
 O        -0.031790         0.061437         0.049840
 C        -0.208566         2.503308        -0.078953
 C        -1.069102         3.690931         0.316895
 C        -2.397413         2.997001         0.851066
 C        -2.397483         1.458315         0.559130
 H        -2.713624         2.325817         3.809795
 H         0.127482         1.858526         2.478390
 H        -0.717823         0.366490         2.435457
 H        -0.478658        -0.426992        -0.694441
 H         0.885092         2.521636         0.169383
 H        -0.296476         2.404045        -1.205558
 H        -0.594436         4.423074         0.994333
 H        -1.384379         4.412911        -0.441082
 H        -3.395528         3.550866         0.951907
 H        -3.319730         0.936569         0.202473
