19
Iteration:  1711charge 0 multiplicity 1
 O        -3.246425         1.971995         2.999211
 C        -2.170621         1.880341         1.965382
 C        -0.700722         1.468636         2.157772
 C        -0.635130         1.367652         0.489393
 O        -0.347385        -0.029870         0.024688
 C        -0.117501         2.581772        -0.197683
 C        -1.097748         3.602069         0.305391
 C        -2.301869         2.897564         0.861468
 C        -2.176756         1.472897         0.513680
 H        -3.252522         1.158894         3.586570
 H        -0.060023         2.251695         2.749727
 H        -0.573692         0.468329         2.488894
 H         0.516526        -0.045406        -0.379404
 H         0.919400         2.788517         0.051217
 H        -0.138792         2.111304        -1.224279
 H        -0.487557         4.160005         1.073983
 H        -1.478868         4.324805        -0.430538
 H        -3.239495         3.474523         1.011100
 H        -2.890086         0.864471        -0.093982
