19
Iteration:  4498charge 0 multiplicity 1
 O        -3.089573         1.926277         3.037777
 C        -2.233993         1.920529         1.994037
 C        -0.791493         1.329551         2.144096
 C        -0.731112         1.328074         0.584685
 O        -0.268442         0.173412        -0.026055
 C        -0.123471         2.493055        -0.208103
 C        -1.073949         3.648006         0.298609
 C        -2.282777         2.924842         0.856602
 C        -2.225999         1.452448         0.526210
 H        -3.558733         1.018981         3.096769
 H        -0.101955         2.005535         2.712215
 H        -0.813852         0.249189         2.438493
 H         0.665714         0.382939        -0.177636
 H         1.012421         2.464385        -0.230456
 H        -0.584404         2.100141        -1.255514
 H        -0.539969         4.265397         1.163246
 H        -1.333823         4.369475        -0.508553
 H        -3.273229         3.470372         0.760982
 H        -2.772785         0.808131        -0.173317
