19
Iteration:  1821charge 0 multiplicity 1
 O        -3.184436         1.874668         2.947236
 C        -2.144160         2.015210         1.982254
 C        -0.683897         1.510700         2.094680
 C        -0.734968         1.277926         0.532288
 O        -0.212554         0.121973        -0.049881
 C        -0.184898         2.439676        -0.171770
 C        -1.049112         3.615121         0.360168
 C        -2.298691         2.971017         0.811694
 C        -2.260100         1.447682         0.618252
 H        -3.316225         0.952587         3.029651
 H         0.166208         2.140704         2.550666
 H        -0.580745         0.528385         2.460687
 H        -0.598635        -0.680031         0.400860
 H         0.855245         2.662775         0.021305
 H        -0.277692         2.133825        -1.237898
 H        -0.615944         4.323783         1.081008
 H        -1.316734         4.234373        -0.499931
 H        -3.188380         3.486354         1.129436
 H        -3.083675         0.832743         0.331301
