19
Iteration:  1701charge 0 multiplicity 1
 O        -3.249811         1.945710         2.899267
 C        -2.157089         1.869135         2.047447
 C        -0.673799         1.436664         2.161027
 C        -0.725249         1.309212         0.564182
 O        -0.332999         0.019266         0.087068
 C        -0.159618         2.553430        -0.288680
 C        -1.016038         3.664589         0.290538
 C        -2.263249         2.918919         0.918658
 C        -2.224912         1.440472         0.524982
 H        -3.261952         0.995914         3.291721
 H         0.045990         2.118204         2.757094
 H        -0.475795         0.424394         2.455567
 H         0.540396         0.167507        -0.310656
 H         0.878577         2.894957        -0.184454
 H        -0.400499         2.585978        -1.400152
 H        -0.437898         4.337092         0.991321
 H        -1.255387         4.353526        -0.560207
 H        -3.252743         3.433570         0.889010
 H        -3.006758         0.818824         0.037601
