19
Iteration:  2424
 O        -3.103446         1.817400         3.032640
 C        -2.140475         1.847419         1.981160
 C        -0.582300         1.467457         2.054065
 C        -0.757957         1.298212         0.498550
 O        -0.333955        -0.029562         0.303251
 C        -0.331701         2.610873        -0.395897
 C        -1.011044         3.721319         0.254447
 C        -2.226283         2.982768         0.956248
 C        -2.279221         1.508696         0.464403
 H        -3.379582         0.960114         3.257899
 H         0.115531         2.168101         2.521630
 H        -0.370124         0.475623         2.410834
 H        -0.212621        -0.142016        -0.689269
 H         0.771922         2.793329        -0.440962
 H        -0.429506         2.396811        -1.474032
 H        -0.601689         4.317860         1.158258
 H        -1.376435         4.492153        -0.509064
 H        -3.169249         3.522325         1.172792
 H        -2.983279         1.046058        -0.161742
