19
Iteration:   847charge 0 multiplicity 1
 O        -3.133890         1.951854         2.973011
 C        -2.197085         1.959334         1.955434
 C        -0.685047         1.388801         2.147048
 C        -0.762231         1.220173         0.586300
 O        -0.221639         0.113919        -0.032539
 C        -0.046607         2.549936        -0.085881
 C        -1.101307         3.670401         0.252400
 C        -2.234417         2.911798         0.881416
 C        -2.325027         1.455877         0.490362
 H        -3.518187         1.017288         3.067981
 H         0.032737         1.984238         2.705752
 H        -0.866741         0.363683         2.634125
 H        -0.926352        -0.531307        -0.107355
 H         0.926967         2.848436         0.352274
 H         0.049180         2.379539        -1.137148
 H        -0.629714         4.252195         1.048030
 H        -1.532109         4.278038        -0.567627
 H        -3.176616         3.481824         0.760118
 H        -3.022793         0.886216        -0.167679
