19
Iteration:  1553charge 0 multiplicity 1
 O        -3.118905         1.968626         3.039370
 C        -2.245381         1.932900         1.942725
 C        -0.841543         1.350730         2.177860
 C        -0.768471         1.195321         0.516387
 O        -0.212757         0.045610        -0.085161
 C        -0.058470         2.522625        -0.095402
 C        -1.137695         3.633491         0.178112
 C        -2.231050         3.041923         0.970331
 C        -2.257749         1.462389         0.506993
 H        -2.807695         1.328668         3.667952
 H        -0.216642         1.992513         2.781725
 H        -0.799154         0.268933         2.559112
 H         0.735968         0.175496        -0.206658
 H         0.853086         2.884534         0.449176
 H         0.150506         2.433690        -1.165571
 H        -0.818168         4.603417         0.537587
 H        -1.649197         3.794585        -0.768883
 H        -3.250530         3.517102         1.059723
 H        -2.992825         0.981161        -0.185380
