19
Iteration:  3050
 O        -3.064857         1.959001         3.007990
 C        -2.111037         1.879241         2.015137
 C        -0.716403         1.284223         2.030831
 C        -0.758111         1.283421         0.487475
 O        -0.109041         0.098923         0.095847
 C        -0.198768         2.566859        -0.168633
 C        -1.205241         3.670394         0.250125
 C        -2.313081         2.878158         0.926294
 C        -2.362046         1.429247         0.564395
 H        -3.247038         2.934711         3.220131
 H         0.109376         1.751396         2.577261
 H        -0.751756         0.194219         2.349243
 H         0.120677         0.110310        -0.858551
 H         0.805738         2.701394         0.244012
 H        -0.245261         2.348769        -1.276346
 H        -0.656724         4.371942         0.894429
 H        -1.622006         4.295560        -0.552458
 H        -3.236317         3.387997         0.974965
 H        -3.094098         0.951925        -0.130091
