19
Iteration:   826charge 0 multiplicity 1
 O        -3.104795         1.830110         3.007811
 C        -2.180460         1.881190         1.916541
 C        -0.784276         1.447265         2.080352
 C        -0.750760         1.290646         0.549093
 O        -0.301098         0.054783         0.020385
 C        -0.054111         2.519781        -0.031703
 C        -1.063349         3.693023         0.272495
 C        -2.344620         2.991351         0.832952
 C        -2.216203         1.585687         0.440309
 H        -2.841274         1.180568         3.644386
 H        -0.063636         2.082645         2.549812
 H        -0.819464         0.371368         2.483467
 H        -0.699816        -0.619164         0.639476
 H         0.967012         2.669467         0.295673
 H         0.003289         2.461618        -1.091488
 H        -0.604562         4.371277         0.945863
 H        -1.095321         3.950147        -0.776278
 H        -3.377954         3.413666         0.731580
 H        -2.831304         0.939451        -0.236013
