19
Iteration:  2604
 O        -3.056142         1.876960         2.875360
 C        -2.067122         2.020684         1.954837
 C        -0.537994         1.443595         2.027787
 C        -0.730054         1.252684         0.493997
 O        -0.397425         0.012170         0.128512
 C        -0.318043         2.512759        -0.267253
 C        -1.119955         3.602266         0.390978
 C        -2.326686         3.025862         0.937288
 C        -2.233915         1.504651         0.560080
 H        -3.147748         0.969648         3.179899
 H         0.340513         1.811959         2.483806
 H        -0.670626         0.435384         2.466433
 H         0.375692        -0.397926         0.492945
 H         0.715870         2.821642        -0.357923
 H        -0.712985         2.679217        -1.279558
 H        -0.570822         4.057945         1.207862
 H        -1.336294         4.464533        -0.255258
 H        -3.321916         3.519379         1.110022
 H        -2.993053         0.945417         0.075407
