19
Iteration:  3128
 O        -3.116631         1.609346         3.021289
 C        -2.203588         1.930624         1.977554
 C        -0.699620         1.453915         2.118479
 C        -0.733320         1.261487         0.487970
 O        -0.173772         0.022312         0.290869
 C        -0.209897         2.545237        -0.321860
 C        -1.080551         3.716101         0.164828
 C        -2.204358         3.057015         0.890324
 C        -2.374828         1.596805         0.499136
 H        -3.004093         2.298799         3.666757
 H         0.021095         2.175210         2.540397
 H        -0.398103         0.430814         2.489111
 H        -0.555409        -0.423353        -0.521380
 H         0.860590         2.554486        -0.074137
 H        -0.327993         2.497833        -1.461321
 H        -0.516585         4.376762         0.823173
 H        -1.453558         4.287533        -0.704893
 H        -3.222164         3.506424         0.970742
 H        -3.260858         1.322103        -0.146544
