19
Iteration:   197
 O        -3.323183         1.905482         2.882656
 C        -2.210018         1.935538         1.997345
 C        -0.750353         1.485635         2.143385
 C        -0.662026         1.215143         0.606383
 O        -0.230975         0.072095         0.022912
 C        -0.210874         2.427216        -0.205309
 C        -0.979744         3.751384         0.312667
 C        -2.283416         2.901064         0.799841
 C        -2.195643         1.418809         0.607811
 H        -3.124940         1.551656         3.730594
 H         0.010773         2.315339         2.592037
 H        -0.428336         0.743605         2.831063
 H         0.656515         0.307135        -0.340140
 H         0.904852         2.553686        -0.229496
 H        -0.509763         2.322655        -1.298678
 H        -0.451002         4.352604         1.034797
 H        -1.018722         4.308822        -0.587454
 H        -3.314593         3.333311         0.934670
 H        -2.946249         0.827871         0.057536
