19
Iteration:  2460
 O        -2.947603         1.837191         3.097627
 C        -2.165639         2.070103         1.949617
 C        -0.721536         1.574184         2.057194
 C        -0.799379         1.228673         0.552868
 O        -0.237618        -0.005193         0.004285
 C        -0.178358         2.521027        -0.090329
 C        -1.093120         3.622251         0.296358
 C        -2.393303         2.970567         0.790693
 C        -2.324804         1.447705         0.482082
 H        -2.464162         1.102002         3.408193
 H         0.182028         2.112308         2.343625
 H        -0.703556         0.546149         2.607706
 H        -0.860035        -0.380633        -0.658869
 H         0.791527         2.537507         0.468768
 H        -0.098984         2.492938        -1.173571
 H        -0.612919         4.281464         1.043034
 H        -1.204967         4.269492        -0.604079
 H        -3.332706         3.556745         0.773050
 H        -3.197422         0.838039         0.065367
