19
Iteration:  2450charge 0 multiplicity 1
 O        -2.941624         1.796114         3.041012
 C        -2.145313         2.057008         1.944479
 C        -0.730773         1.535903         1.975537
 C        -0.754789         1.238575         0.468019
 O        -0.263221        -0.011371         0.154233
 C        -0.140759         2.499508        -0.196289
 C        -1.127272         3.658302         0.347678
 C        -2.361378         2.995123         0.855026
 C        -2.320983         1.520476         0.521703
 H        -2.693914         1.002894         3.482551
 H         0.057086         2.152282         2.462984
 H        -0.860753         0.472597         2.447060
 H        -0.814827        -0.386941        -0.595113
 H         0.948545         2.693672         0.097395
 H        -0.073256         2.372747        -1.282365
 H        -0.858494         4.283622         1.176671
 H        -1.401247         4.296452        -0.505045
 H        -3.350218         3.430371         0.691395
 H        -3.273132         0.949689         0.273861
