19
Iteration:  1123charge 0 multiplicity 1
 O        -3.218107         1.666256         2.929918
 C        -2.147693         2.000756         2.037530
 C        -0.706177         1.478693         2.164019
 C        -0.707166         1.260221         0.520644
 O        -0.241451         0.068905         0.066113
 C        -0.194338         2.463318        -0.246118
 C        -0.982451         3.735180         0.226839
 C        -2.258776         3.045556         0.858578
 C        -2.257256         1.504891         0.568411
 H        -2.924149         1.906405         3.879982
 H        -0.027856         2.163939         2.632556
 H        -0.739045         0.444427         2.686612
 H        -1.002938        -0.519088         0.233535
 H         0.869978         2.671387         0.068034
 H        -0.356418         2.221457        -1.309982
 H        -0.424546         4.472610         0.830815
 H        -1.388480         4.314982        -0.661555
 H        -3.262849         3.484262         0.738444
 H        -2.922214         1.088033        -0.233918
