19
Iteration:   785charge 0 multiplicity 1
 O        -3.184543         1.743040         2.913682
 C        -2.191717         1.931806         1.968365
 C        -0.718309         1.442147         2.033638
 C        -0.764893         1.268585         0.501253
 O        -0.239037         0.038036         0.061471
 C        -0.162034         2.462962        -0.115080
 C        -0.941833         3.659560         0.370909
 C        -2.312638         3.054944         0.851553
 C        -2.328910         1.568531         0.476154
 H        -2.899518         2.413900         3.645469
 H         0.087558         2.006841         2.546673
 H        -0.768887         0.456351         2.454117
 H         0.455208        -0.169876         0.697368
 H         0.908710         2.477044        -0.014935
 H        -0.296630         2.361651        -1.213166
 H        -0.557376         4.183478         1.236919
 H        -1.300297         4.430779        -0.336962
 H        -3.261934         3.628236         0.638562
 H        -3.132679         0.923760         0.055598
