19
Iteration:  2315charge 0 multiplicity 1
 O        -2.953424         2.061887         3.123848
 C        -2.133794         1.954906         1.965702
 C        -0.666451         1.314907         2.003448
 C        -0.736440         1.278015         0.482996
 O        -0.333951        -0.019608        -0.076594
 C        -0.122670         2.661811        -0.013097
 C        -1.214580         3.703532         0.216282
 C        -2.398133         2.907016         0.869179
 C        -2.298619         1.376935         0.489260
 H        -2.797490         1.305568         3.755553
 H         0.358952         1.677072         2.324196
 H        -0.897321         0.279883         2.290877
 H         0.364868        -0.462880         0.454942
 H         0.776789         2.723500         0.672857
 H         0.150543         2.436959        -1.081446
 H        -1.016717         4.627859         0.842527
 H        -1.727950         4.150594        -0.673293
 H        -3.360808         3.370462         0.912046
 H        -2.987113         0.737851        -0.062941
