19
Iteration:   389
 O        -3.203000         1.764599         2.866374
 C        -2.163407         1.969246         1.907365
 C        -0.631484         1.513129         2.106201
 C        -0.724495         1.253152         0.571909
 O        -0.412663         0.013204         0.101452
 C        -0.131059         2.492746        -0.094512
 C        -0.994217         3.762377         0.370879
 C        -2.332109         2.980554         0.832805
 C        -2.256482         1.481911         0.424209
 H        -2.824293         1.146113         3.542918
 H         0.139271         2.308372         2.279955
 H        -0.588730         0.574201         2.832275
 H         0.379127        -0.242180         0.581970
 H         0.924309         2.630869         0.229719
 H         0.003299         2.345833        -1.166246
 H        -0.465584         4.297298         1.178866
 H        -1.339860         4.350868        -0.538783
 H        -3.274458         3.549667         0.803558
 H        -2.899188         1.033519        -0.300365
