19
Iteration:  3381
 O        -3.051087         1.832590         3.041877
 C        -2.177635         2.002691         1.987639
 C        -0.693895         1.457940         2.080843
 C        -0.802217         1.237072         0.443824
 O        -0.101038        -0.015458         0.032665
 C        -0.164914         2.491988        -0.153746
 C        -1.064764         3.691171         0.286922
 C        -2.371846         2.956102         0.856164
 C        -2.424732         1.400717         0.658689
 H        -3.891652         2.386266         2.927324
 H         0.108261         2.176630         2.411331
 H        -0.701505         0.517802         2.520517
 H         0.335394         0.328051        -0.763452
 H         0.860469         2.802965         0.111294
 H        -0.150998         2.468904        -1.237118
 H        -0.533436         4.415102         0.979307
 H        -1.304573         4.390079        -0.581291
 H        -3.178905         3.651313         0.721302
 H        -3.285243         0.800305         0.166453
