19
Iteration:  4384charge 0 multiplicity 1
 O        -3.123144         2.005694         2.971860
 C        -2.143394         1.876342         1.966072
 C        -0.690419         1.347382         2.031965
 C        -0.764710         1.236756         0.489059
 O        -0.179093         0.070420        -0.036805
 C        -0.138305         2.510072        -0.137579
 C        -1.080454         3.720427         0.327984
 C        -2.396075         3.007436         0.903309
 C        -2.330099         1.401882         0.566688
 H        -3.461770         1.072441         3.256908
 H         0.072676         1.969378         2.479959
 H        -0.720323         0.357612         2.518062
 H         0.728054         0.099177         0.232209
 H         0.770634         2.569762         0.449988
 H         0.039517         2.526269        -1.251946
 H        -0.550229         4.159060         1.162126
 H        -1.440071         4.471797        -0.433526
 H        -3.394453         3.311441         1.022198
 H        -3.268854         0.926654         0.186784
