19
Iteration:  1950charge 0 multiplicity 1
 O        -2.978828         2.095898         3.096503
 C        -2.211400         1.877445         1.981536
 C        -0.718236         1.298317         2.102497
 C        -0.744315         1.280792         0.495762
 O        -0.314727         0.052582        -0.047071
 C        -0.082970         2.615762        -0.072638
 C        -1.135105         3.675898         0.219042
 C        -2.455029         2.868506         0.865268
 C        -2.193193         1.409910         0.469634
 H        -3.678631         1.379867         3.336721
 H        -0.179920         2.006665         2.716082
 H        -0.855866         0.305765         2.442109
 H         0.604633        -0.106194         0.128876
 H         0.844223         2.737309         0.458423
 H         0.107510         2.532893        -1.163195
 H        -0.633704         4.330393         0.937273
 H        -1.318931         4.141623        -0.719750
 H        -3.524542         3.121822         0.864637
 H        -2.765640         0.742554        -0.164445
