19
Iteration:   208
 O        -3.302290         1.859079         2.840114
 C        -2.186985         1.909778         1.995634
 C        -0.733758         1.527784         2.234989
 C        -0.708425         1.303232         0.614101
 O        -0.241753         0.014013         0.057942
 C        -0.146150         2.497141        -0.210125
 C        -0.978512         3.632067         0.271446
 C        -2.274610         2.981706         0.862709
 C        -2.214202         1.428256         0.553228
 H        -2.944991         1.633780         3.714123
 H        -0.116758         2.462922         2.554562
 H        -0.658420         0.578383         2.691986
 H         0.337019         0.250297        -0.721066
 H         0.946582         2.638194        -0.338590
 H        -0.626885         2.234903        -1.210522
 H        -0.553538         4.230998         1.059223
 H        -1.353456         4.314154        -0.444267
 H        -3.239326         3.565886         0.790829
 H        -2.761310         0.635789         0.034611
