19
Iteration:  4754charge 0 multiplicity 1
 O        -3.147106         1.839935         3.003260
 C        -2.142308         1.960020         2.000000
 C        -0.686447         1.416104         2.164995
 C        -0.724477         1.309372         0.557148
 O        -0.271317         0.045514        -0.022811
 C        -0.086359         2.542520        -0.072857
 C        -1.114378         3.655376         0.189496
 C        -2.336876         2.997304         0.850141
 C        -2.254494         1.471585         0.576674
 H        -3.541111         0.992367         2.986327
 H         0.034367         2.025141         2.759526
 H        -0.714372         0.298683         2.430731
 H        -0.142047         0.139847        -0.964357
 H         0.943925         2.589195         0.229254
 H        -0.094497         2.240555        -1.168274
 H        -0.831616         4.562580         0.835801
 H        -1.289420         4.190722        -0.734282
 H        -3.234593         3.599695         1.130113
 H        -2.871989         0.848631        -0.009915
