19
Iteration:  1931
 O        -3.101820         2.073827         3.072275
 C        -2.183129         1.918045         1.988673
 C        -0.729372         1.357735         2.142597
 C        -0.743168         1.244092         0.585236
 O        -0.238369         0.127276        -0.141198
 C        -0.124247         2.484656        -0.099512
 C        -1.134585         3.637272         0.252554
 C        -2.213648         2.862352         0.799213
 C        -2.332786         1.407883         0.600812
 H        -3.558083         1.165665         3.206373
 H        -0.006005         2.035323         2.706751
 H        -0.752472         0.369105         2.584446
 H         0.650400         0.170963        -0.512153
 H         0.832469         2.866669         0.249434
 H        -0.064193         2.298939        -1.194573
 H        -1.067427         4.460648         0.989540
 H        -1.441077         4.085576        -0.698344
 H        -3.106968         3.470325         0.874545
 H        -3.092376         0.799728         0.025249
