19
Iteration:  2667charge 0 multiplicity 1
 O        -2.968406         1.925357         3.171752
 C        -2.154109         1.951227         1.966926
 C        -0.681765         1.442222         2.031262
 C        -0.762077         1.188754         0.482753
 O        -0.316168         0.030544        -0.063847
 C        -0.118834         2.532614        -0.026504
 C        -1.114618         3.619786         0.260460
 C        -2.359215         2.972654         0.869501
 C        -2.325228         1.489707         0.521472
 H        -3.840438         1.549433         2.863861
 H         0.168531         2.121744         2.268678
 H        -0.603632         0.435074         2.493026
 H         0.167760         0.399533        -0.836971
 H         0.867885         2.586620         0.465882
 H         0.040764         2.291691        -1.076218
 H        -0.845337         4.416455         0.992544
 H        -1.297592         4.165075        -0.729524
 H        -3.372421         3.370131         0.777993
 H        -3.119725         0.884129         0.155818
