19
Iteration:  3808charge 0 multiplicity 1
 O        -3.190985         1.943312         3.099519
 C        -2.117321         1.949059         2.047453
 C        -0.760958         1.311291         2.144435
 C        -0.720773         1.245626         0.579274
 O        -0.300235         0.137983        -0.179186
 C        -0.027832         2.547351        -0.018792
 C        -1.178474         3.612275         0.137918
 C        -2.312593         2.840904         0.799701
 C        -2.232634         1.423774         0.554197
 H        -3.141821         2.887977         3.366944
 H        -0.011250         2.040012         2.727253
 H        -0.745547         0.348723         2.590867
 H         0.692088         0.231308        -0.124586
 H         0.855796         2.717595         0.559289
 H         0.233164         2.526624        -1.075150
 H        -0.857056         4.442876         0.724385
 H        -1.507117         4.053514        -0.796469
 H        -3.227768         3.355502         0.810425
 H        -2.813795         0.803135        -0.078642
