19
Iteration:  2777
 O        -3.084004         1.754021         2.930860
 C        -2.079815         1.953204         1.946975
 C        -0.660416         1.462356         2.067011
 C        -0.672436         1.292268         0.551781
 O        -0.329542         0.002562         0.046747
 C        -0.286611         2.570717        -0.306599
 C        -1.077975         3.717796         0.411387
 C        -2.329429         2.995011         0.925590
 C        -2.239695         1.462917         0.538053
 H        -2.727840         2.152080         3.761625
 H         0.128206         2.177752         2.425978
 H        -0.582833         0.445604         2.590671
 H        -0.828344        -0.607257         0.615714
 H         0.780924         2.811202        -0.265848
 H        -0.583298         2.459291        -1.353899
 H        -0.461433         4.052492         1.259969
 H        -1.276923         4.473978        -0.384066
 H        -3.304903         3.463883         0.575570
 H        -2.949958         0.888633        -0.119900
