19
Iteration:  1564
 O        -3.129065         1.973131         3.049281
 C        -2.160052         1.859869         2.006798
 C        -0.822009         1.363470         2.141752
 C        -0.664532         1.300663         0.583970
 O        -0.242931         0.087128        -0.116558
 C        -0.094990         2.539549        -0.052868
 C        -1.112989         3.565028         0.084032
 C        -2.294425         2.961940         0.946691
 C        -2.339276         1.496235         0.520244
 H        -3.201256         1.166972         3.514978
 H        -0.095673         1.863215         2.749956
 H        -1.064437         0.311929         2.609130
 H         0.746717         0.295445        -0.051459
 H         0.865509         2.825194         0.480473
 H         0.202629         2.245131        -1.057990
 H        -0.501014         4.377314         0.415925
 H        -1.539790         3.904112        -0.862222
 H        -3.045024         3.784144         1.041419
 H        -3.142748         1.103168        -0.170922
