19
Iteration:  1350
 O        -3.193027         2.041547         3.044678
 C        -2.202798         1.933401         2.049827
 C        -0.772015         1.305154         2.084125
 C        -0.703999         1.233596         0.506692
 O        -0.117332         0.032399         0.041843
 C        -0.230347         2.461047        -0.265070
 C        -1.037317         3.695052         0.371698
 C        -2.266287         2.962134         0.819086
 C        -2.318717         1.516128         0.563650
 H        -3.400271         1.173325         3.321935
 H        -0.045289         1.754893         2.838126
 H        -0.795468         0.263181         2.152013
 H         0.631274         0.254649        -0.492976
 H         0.835087         2.666256        -0.365590
 H        -0.567164         2.393746        -1.327379
 H        -0.422925         4.318700         1.032293
 H        -1.227118         4.265803        -0.522909
 H        -3.286905         3.345452         0.905838
 H        -2.959838         0.987940        -0.114439
