19
Iteration:    89
 O        -3.320771         1.846524         2.892870
 C        -2.154422         1.975980         2.050242
 C        -0.600880         1.505840         2.166931
 C        -0.703345         1.218363         0.624091
 O        -0.132544         0.129635         0.008960
 C        -0.188703         2.478850        -0.121955
 C        -1.127053         3.718390         0.146113
 C        -2.270138         2.865889         0.823664
 C        -2.212582         1.422736         0.560604
 H        -3.159332         2.312094         3.731482
 H         0.059257         2.168372         2.433579
 H        -0.564853         0.603666         2.751093
 H        -0.722936        -0.622137         0.082147
 H         0.891369         2.619067         0.083879
 H        -0.205494         2.229203        -1.208742
 H        -0.722848         4.545322         0.719788
 H        -1.490641         4.104340        -0.794371
 H        -3.296072         3.320300         0.984874
 H        -3.027142         0.748164         0.148675
