19
Iteration:  1076
 O        -3.060856         1.890596         3.016074
 C        -2.164781         1.891381         1.942991
 C        -0.764097         1.458078         2.078036
 C        -0.755743         1.257826         0.543872
 O        -0.212029         0.065372         0.009705
 C        -0.162908         2.539537        -0.129028
 C        -1.074359         3.652033         0.347375
 C        -2.270387         2.916582         0.842943
 C        -2.225568         1.451298         0.515986
 H        -3.746877         2.570611         2.823576
 H        -0.006555         2.142668         2.381866
 H        -0.698867         0.489609         2.539350
 H        -0.846035        -0.622695        -0.195324
 H         0.869205         2.626845         0.187235
 H        -0.299321         2.380773        -1.218924
 H        -0.733634         4.198521         1.228333
 H        -1.422221         4.408923        -0.321223
 H        -3.229230         3.425897         0.763503
 H        -3.074042         0.957847         0.057699
