19
Iteration:  1597
 O        -3.078421         1.943410         2.990940
 C        -2.100113         2.011382         2.006230
 C        -0.693501         1.360456         2.098284
 C        -0.700235         1.270670         0.530003
 O        -0.334593        -0.056115        -0.056817
 C        -0.149125         2.631500        -0.004333
 C        -1.145164         3.717804         0.188972
 C        -2.325914         2.924888         0.821484
 C        -2.249548         1.436747         0.591084
 H        -3.743627         1.320075         2.665267
 H         0.197839         1.774684         2.564323
 H        -1.103622         0.454405         2.667909
 H         0.557251        -0.342795         0.140296
 H         0.805091         2.750733         0.557369
 H         0.150520         2.591655        -1.056115
 H        -0.712087         4.473903         0.840528
 H        -1.488656         4.220129        -0.717768
 H        -3.281387         3.470515         0.797889
 H        -2.990903         0.730926         0.174216
