19
Iteration:  4305charge 0 multiplicity 1
 O        -3.134390         1.758800         2.896591
 C        -2.156856         1.960867         1.955461
 C        -0.712675         1.495092         2.035383
 C        -0.767061         1.331578         0.502693
 O        -0.231439        -0.029314         0.075491
 C        -0.168083         2.464778        -0.151177
 C        -1.086451         3.669128         0.310371
 C        -2.315496         3.034802         0.987310
 C        -2.357512         1.521358         0.481991
 H        -2.658213         1.505384         3.725327
 H        -0.038514         2.160704         2.521200
 H        -0.483570         0.477143         2.566497
 H         0.705432         0.083359         0.180204
 H         0.907974         2.684345         0.295852
 H        -0.162364         2.365076        -1.251103
 H        -0.459366         4.287232         1.065267
 H        -1.384731         4.457732        -0.486111
 H        -3.326059         3.500106         0.811408
 H        -3.069601         0.948625        -0.090061
