19
Iteration:  4184charge 0 multiplicity 1
 O        -2.970580         1.953701         3.140608
 C        -2.224062         1.877525         1.901518
 C        -0.874444         1.266236         2.136493
 C        -0.712947         1.249236         0.533874
 O        -0.206517         0.100281        -0.041163
 C        -0.148794         2.562661        -0.045907
 C        -1.143263         3.692255         0.276475
 C        -2.318770         2.940237         0.819272
 C        -2.240310         1.408602         0.437295
 H        -3.693299         2.528662         2.999698
 H        -0.318311         1.804385         2.832298
 H        -1.008508         0.246562         2.616920
 H         0.488089         0.238966        -0.707883
 H         0.931992         2.767938         0.322809
 H        -0.032736         2.337660        -1.078304
 H        -0.689438         4.417149         1.022953
 H        -1.415950         4.369998        -0.543588
 H        -3.240677         3.486622         0.940909
 H        -2.812781         0.850796        -0.338160
