19
Iteration:  3817
 O        -3.185620         1.947997         3.047355
 C        -2.198487         1.918961         2.056068
 C        -0.657624         1.349041         2.169596
 C        -0.722407         1.223441         0.582760
 O        -0.263410         0.095976        -0.150512
 C        -0.061548         2.500442        -0.009350
 C        -1.178344         3.649578         0.177159
 C        -2.294773         2.890319         0.814338
 C        -2.295977         1.438538         0.521033
 H        -3.207424         2.863476         3.410421
 H         0.202713         1.938590         2.692438
 H        -0.503496         0.406552         2.643986
 H         0.560667         0.371633        -0.655445
 H         0.720966         2.875174         0.560442
 H         0.330532         2.273393        -1.002233
 H        -0.728522         4.461904         0.717284
 H        -1.699679         4.032846        -0.733672
 H        -3.266637         3.396513         0.803741
 H        -2.904144         0.902514        -0.163142
