19
Iteration:   329
 O        -3.152685         1.994128         2.940300
 C        -2.180796         1.972450         1.945165
 C        -0.753924         1.304384         2.072645
 C        -0.676121         1.251068         0.527641
 O        -0.131948         0.110391        -0.048501
 C        -0.200065         2.443428        -0.038189
 C        -1.079757         3.624328         0.386336
 C        -2.298510         2.957876         0.826637
 C        -2.266833         1.483928         0.524910
 H        -4.016019         1.775922         2.614537
 H        -0.097793         1.889154         2.692984
 H        -0.878018         0.382029         2.525885
 H         0.241959        -0.395820         0.697817
 H         0.856989         2.612647         0.225516
 H        -0.359106         2.370062        -1.135933
 H        -0.610657         4.415052         0.936180
 H        -1.239767         4.197985        -0.466730
 H        -3.259192         3.479816         0.940104
 H        -3.184717         1.034600         0.115465
