19
Iteration:  1762
 O        -2.965267         2.051357         3.051634
 C        -2.209692         1.967486         1.911545
 C        -0.805912         1.243678         2.057061
 C        -0.746869         1.240693         0.537401
 O        -0.159346         0.072795        -0.019764
 C        -0.010497         2.524837        -0.051750
 C        -1.202511         3.689973         0.271115
 C        -2.481790         2.925877         0.786185
 C        -2.343925         1.477206         0.481522
 H        -3.039759         1.143156         3.510104
 H        -0.016074         1.746288         2.579048
 H        -0.878647         0.172290         2.404799
 H         0.484320        -0.081725         0.715729
 H         0.843294         2.870748         0.558429
 H         0.323585         2.340891        -1.100767
 H        -0.728981         4.347306         0.987840
 H        -1.269198         4.219259        -0.678484
 H        -3.482419         3.398394         0.888120
 H        -3.209187         0.908452         0.061214
