19
Iteration:  3057charge 0 multiplicity 1
 O        -3.074562         1.961262         2.955364
 C        -2.114901         1.915639         2.023355
 C        -0.613042         1.272518         2.017095
 C        -0.775706         1.261442         0.473588
 O        -0.121063         0.042719         0.091587
 C        -0.217879         2.560838        -0.129763
 C        -1.248557         3.690170         0.320941
 C        -2.367780         2.979456         0.900583
 C        -2.312259         1.363278         0.557355
 H        -3.073665         2.905327         3.171048
 H         0.157287         1.817533         2.560436
 H        -0.706994         0.256206         2.305715
 H         0.064665         0.132435        -0.896443
 H         0.782531         2.794839         0.279933
 H        -0.137486         2.329626        -1.174821
 H        -0.631012         4.355157         0.986597
 H        -1.578309         4.220063        -0.585205
 H        -3.344329         3.541161         0.858452
 H        -3.178750         0.934916         0.154321
