19
Iteration:  2539
 O        -2.952244         1.951525         3.092243
 C        -2.093149         1.960537         1.992695
 C        -0.787130         1.332379         2.059214
 C        -0.764467         1.207988         0.542974
 O        -0.130283         0.102339        -0.058674
 C        -0.207361         2.503619        -0.133036
 C        -1.142999         3.696645         0.201809
 C        -2.346985         3.036108         0.873171
 C        -2.405842         1.462288         0.579368
 H        -3.085642         1.017102         3.208265
 H         0.012004         1.811717         2.645955
 H        -0.933241         0.327820         2.574565
 H        -0.670696        -0.710826        -0.076363
 H         0.834449         2.626883         0.162642
 H        -0.121362         2.391346        -1.233649
 H        -0.702951         4.414382         0.870774
 H        -1.273532         4.175056        -0.763693
 H        -3.183342         3.705706         0.948976
 H        -3.151477         0.874684         0.094573
