19
Iteration:  4471
 O        -3.143257         1.809169         2.949069
 C        -2.160355         1.989724         1.952502
 C        -0.660025         1.532241         2.060013
 C        -0.759264         1.262101         0.478619
 O        -0.291583        -0.105529         0.037053
 C        -0.171724         2.572230        -0.162040
 C        -1.102137         3.703005         0.377784
 C        -2.314736         3.003420         0.893322
 C        -2.226328         1.498601         0.578000
 H        -3.567325         0.885599         2.911775
 H        -0.031935         2.278975         2.523579
 H        -0.495595         0.537817         2.507126
 H         0.644117         0.035128        -0.170159
 H         0.850290         2.692510         0.117525
 H        -0.343925         2.511910        -1.141848
 H        -0.578455         4.044531         1.186405
 H        -1.217743         4.430154        -0.420573
 H        -3.216694         3.575545         0.907128
 H        -2.936858         0.890220         0.025363
