19
Iteration:  4674
 O        -3.029556         1.938563         3.036435
 C        -2.214522         1.936591         1.957570
 C        -0.825606         1.403218         2.013585
 C        -0.746784         1.310481         0.518039
 O        -0.222362         0.036710         0.068800
 C        -0.125411         2.592696        -0.131764
 C        -1.023040         3.680505         0.394486
 C        -2.405645         2.923132         0.803339
 C        -2.296146         1.396540         0.440482
 H        -2.888648         1.299142         3.711247
 H        -0.082488         2.078503         2.501873
 H        -0.737703         0.501313         2.720368
 H         0.086939         0.141447        -0.833702
 H         0.875258         2.509008         0.214655
 H        -0.122088         2.369640        -1.201428
 H        -0.609716         4.142593         1.333096
 H        -1.223953         4.389780        -0.406378
 H        -3.380533         3.326297         0.796682
 H        -2.824118         0.604140        -0.106600
