19
Iteration:  2708
 O        -2.931547         1.971089         3.125941
 C        -2.156573         1.906807         2.020919
 C        -0.717721         1.177272         2.039732
 C        -0.694596         1.289064         0.526396
 O        -0.248727         0.019960         0.038508
 C        -0.166295         2.598846        -0.097407
 C        -1.196511         3.705368         0.269969
 C        -2.340855         2.978545         0.872466
 C        -2.233764         1.516588         0.390747
 H        -3.838040         1.939683         2.948171
 H         0.128343         1.682533         2.663847
 H        -1.016049         0.224666         2.480352
 H        -0.761764        -0.298237        -0.695657
 H         0.857151         3.011084         0.081099
 H        -0.340057         2.546077        -1.184683
 H        -0.664688         4.440857         0.889238
 H        -1.631674         4.105596        -0.635143
 H        -3.293542         3.362581         0.899221
 H        -3.043044         0.938749         0.020734
