19
Iteration:  1426charge 0 multiplicity 1
 O        -3.106759         1.902081         3.012590
 C        -2.187946         1.927020         1.982552
 C        -0.715031         1.397080         2.162760
 C        -0.671592         1.320257         0.539863
 O        -0.349069        -0.085600        -0.041917
 C        -0.083777         2.565004        -0.063102
 C        -1.157759         3.723399         0.179647
 C        -2.310907         2.991514         0.848700
 C        -2.242469         1.541392         0.513219
 H        -3.331040         0.955195         3.312677
 H         0.095739         2.033776         2.678918
 H        -0.708285         0.426001         2.548346
 H         0.475945        -0.435696         0.374580
 H         0.963799         2.631123         0.174504
 H        -0.118403         2.459764        -1.178925
 H        -0.687612         4.413604         0.942182
 H        -1.215674         4.268933        -0.761945
 H        -3.327812         3.452519         0.907230
 H        -3.006573         1.025826        -0.132529
