19
Iteration:  2655charge 0 multiplicity 1
 O        -3.001835         1.887330         3.177959
 C        -2.211209         1.972088         2.064464
 C        -0.753883         1.515603         2.052802
 C        -0.783801         1.271733         0.554615
 O        -0.261513         0.067263        -0.141669
 C        -0.084679         2.353487        -0.120646
 C        -1.081566         3.598071         0.249484
 C        -2.337961         2.949767         0.941316
 C        -2.318332         1.517523         0.470281
 H        -3.798721         1.436265         3.036058
 H        -0.083034         2.332268         2.486698
 H        -0.512170         0.640079         2.684497
 H         0.340978         0.287881        -0.838121
 H         0.977926         2.526918         0.169980
 H        -0.121775         2.367389        -1.197921
 H        -0.492011         4.397932         0.786166
 H        -1.584148         4.017884        -0.672123
 H        -3.249397         3.495779         0.922754
 H        -2.986433         0.960968        -0.134539
