19
Iteration:  1819
 O        -3.184376         1.885153         2.938856
 C        -2.146252         1.999017         1.994567
 C        -0.675978         1.507175         2.107486
 C        -0.734343         1.275305         0.530241
 O        -0.206618         0.126014        -0.061178
 C        -0.181019         2.446964        -0.167991
 C        -1.050752         3.609561         0.344195
 C        -2.296841         2.964620         0.824541
 C        -2.274372         1.462022         0.616972
 H        -3.380315         0.943528         3.086955
 H         0.146231         2.094477         2.606097
 H        -0.600940         0.484237         2.463628
 H        -0.560803        -0.618899         0.439955
 H         0.849066         2.683885         0.008914
 H        -0.326798         2.174122        -1.247614
 H        -0.622727         4.320370         1.050824
 H        -1.263891         4.149636        -0.562669
 H        -3.185979         3.530518         1.134623
 H        -3.061157         0.774027         0.331271
