19
Iteration:  2638charge 0 multiplicity 1
 O        -3.069583         1.855161         3.184515
 C        -2.231071         1.881552         2.017864
 C        -0.770584         1.500969         2.203655
 C        -0.746531         1.227546         0.451385
 O        -0.279312         0.043039        -0.057856
 C        -0.190778         2.529438        -0.314485
 C        -0.995873         3.635041         0.204494
 C        -2.198062         3.035138         0.918097
 C        -2.307070         1.466727         0.592559
 H        -3.670496         1.175789         2.981010
 H        -0.068448         2.210660         2.590617
 H        -0.693850         0.538827         2.735574
 H         0.509863         0.287858        -0.534471
 H         0.859097         2.584862        -0.055514
 H        -0.285023         2.268917        -1.397255
 H        -0.513986         4.287014         0.922214
 H        -1.434580         4.180084        -0.622082
 H        -3.259682         3.497741         0.910564
 H        -3.160265         1.157321        -0.068343
