19
Iteration:  1485
 O        -3.222602         1.934433         3.073027
 C        -2.259814         1.928325         1.944796
 C        -0.688158         1.528767         2.055298
 C        -0.699269         1.270099         0.509551
 O        -0.247197        -0.040073         0.062460
 C        -0.253503         2.512485        -0.237447
 C        -1.002360         3.636782         0.420869
 C        -2.253293         2.943103         0.882778
 C        -2.238550         1.462246         0.476223
 H        -3.445310         0.977127         3.142007
 H        -0.000990         2.339795         2.197291
 H        -0.299866         0.645024         2.731635
 H         0.625548         0.145729        -0.390220
 H         0.894605         2.507260        -0.190859
 H        -0.675589         2.475457        -1.238293
 H        -0.424917         4.050633         1.237478
 H        -1.167010         4.432908        -0.335893
 H        -3.088122         3.601254         0.763217
 H        -2.753059         1.010536        -0.337977
