19
Iteration:   322
 O        -3.174082         2.020582         2.928152
 C        -2.141502         1.988380         1.912580
 C        -0.724830         1.350488         2.148804
 C        -0.707783         1.194226         0.600505
 O        -0.132483         0.114231        -0.085252
 C        -0.167520         2.528318        -0.112700
 C        -1.078082         3.605694         0.407532
 C        -2.307598         2.947277         0.890006
 C        -2.311850         1.433727         0.477660
 H        -3.957438         1.911725         2.400746
 H         0.070320         1.876931         2.738296
 H        -1.052592         0.309320         2.608242
 H         0.177433        -0.633116         0.484852
 H         0.899382         2.549309         0.215093
 H        -0.189566         2.370327        -1.197343
 H        -0.632398         4.382534         1.072046
 H        -1.388113         4.210299        -0.520092
 H        -3.243238         3.452257         1.079241
 H        -3.082676         0.724118         0.096663
