19
Iteration:  3489charge 0 multiplicity 1
 O        -3.173554         1.757076         2.994803
 C        -2.186346         1.928933         2.013091
 C        -0.684207         1.447920         2.144338
 C        -0.712256         1.354909         0.580415
 O        -0.189205         0.019799         0.119660
 C        -0.186623         2.523229        -0.261464
 C        -1.085261         3.630241         0.187802
 C        -2.314595         2.970677         0.867068
 C        -2.261589         1.499497         0.527911
 H        -2.921251         2.282213         3.737349
 H         0.090987         2.105866         2.610040
 H        -0.584371         0.519069         2.668352
 H        -0.435978         0.267819        -0.822753
 H         0.852944         2.692500        -0.366373
 H        -0.476861         2.352912        -1.332241
 H        -0.529746         4.255992         0.920069
 H        -1.398722         4.344208        -0.613840
 H        -3.221597         3.478108         1.052990
 H        -2.981055         0.874910        -0.026006
