19
Iteration:  4403
 O        -3.150482         1.848130         3.034178
 C        -2.146267         2.016903         1.997940
 C        -0.806248         1.427172         2.116652
 C        -0.693447         1.262078         0.495295
 O        -0.244692         0.033626        -0.033165
 C        -0.164193         2.570670        -0.146449
 C        -1.078601         3.649407         0.302803
 C        -2.277389         2.972264         0.866864
 C        -2.265742         1.500745         0.497171
 H        -2.897601         0.911736         3.246079
 H         0.054864         1.835635         2.648051
 H        -0.816555         0.277208         2.329912
 H         0.565810        -0.097949         0.457137
 H         0.948609         2.802938        -0.030395
 H        -0.557125         2.371990        -1.085550
 H        -0.731515         4.237575         1.169869
 H        -1.431975         4.199496        -0.580834
 H        -3.188734         3.534296         0.676578
 H        -3.024853         0.913551        -0.049847
