19
Iteration:  1983
 O        -2.981579         1.919544         3.015146
 C        -2.133046         1.981528         1.928445
 C        -0.756133         1.397678         2.023769
 C        -0.844154         1.185570         0.498975
 O        -0.236272         0.002339         0.037084
 C        -0.126454         2.624811        -0.069322
 C        -1.060251         3.746768         0.267016
 C        -2.406651         2.941485         0.831199
 C        -2.343871         1.427802         0.479723
 H        -2.756946         1.071252         3.463285
 H         0.042106         2.030839         2.504976
 H        -0.704271         0.548951         2.706084
 H         0.108938        -0.463174         0.839484
 H         0.871833         2.786887         0.276517
 H        -0.012386         2.524328        -1.180179
 H        -0.845557         4.531965         1.010278
 H        -1.178263         4.386425        -0.584585
 H        -3.435497         3.316128         0.868681
 H        -3.139673         0.731227         0.094832
