19
Iteration:  3891charge 0 multiplicity 1
 O        -3.174146         1.621406         2.951628
 C        -2.231577         1.928631         1.938559
 C        -0.738840         1.661477         2.149095
 C        -0.716855         1.317365         0.561699
 O        -0.267446         0.051430         0.070741
 C        -0.204778         2.504305        -0.306835
 C        -0.925730         3.641489         0.366310
 C        -2.242417         2.967465         0.916662
 C        -2.281957         1.493942         0.404948
 H        -2.848929         2.192227         3.613641
 H        -0.216473         2.533162         2.454614
 H        -0.474005         0.778004         2.839311
 H        -0.329781        -0.500338         0.853694
 H         0.890018         2.365441        -0.358436
 H        -0.654848         2.455921        -1.330511
 H        -0.339461         4.069302         1.225595
 H        -1.196056         4.474720        -0.340966
 H        -3.180702         3.494455         0.828486
 H        -3.061285         1.064326        -0.153741
