19
Iteration:  1908charge 0 multiplicity 1
 O        -3.189556         1.943952         2.951342
 C        -2.103005         2.034453         2.023793
 C        -0.746100         1.428404         2.108353
 C        -0.781131         1.201697         0.568116
 O        -0.171400         0.024277        -0.066218
 C        -0.135571         2.421286        -0.151179
 C        -1.087259         3.703923         0.258564
 C        -2.371831         3.004809         0.968866
 C        -2.274261         1.454429         0.574408
 H        -3.119102         1.086142         3.369823
 H         0.316635         1.847950         2.220697
 H        -0.756355         0.525127         2.635154
 H         0.475140         0.176110        -0.776558
 H         0.867255         2.782566         0.073645
 H        -0.218303         2.102279        -1.225879
 H        -0.512534         4.366440         0.954923
 H        -1.413205         4.324330        -0.555099
 H        -3.363021         3.450464         0.900760
 H        -3.097135         0.742696         0.393856
