19
Iteration:  3207
 O        -3.082889         1.963768         3.192777
 C        -2.202756         1.919290         2.010078
 C        -0.740262         1.460383         2.091381
 C        -0.749273         1.218451         0.484612
 O        -0.156359         0.025558        -0.010623
 C        -0.131240         2.540331        -0.149597
 C        -1.117200         3.562022         0.308950
 C        -2.403096         2.913055         0.789185
 C        -2.310347         1.440541         0.445274
 H        -3.203475         2.858689         3.383392
 H         0.115860         2.128102         2.450004
 H        -0.652108         0.481254         2.506802
 H         0.538177         0.278286        -0.690923
 H         0.942194         2.661824         0.132260
 H        -0.012813         2.386551        -1.278846
 H        -0.681539         4.307251         0.975250
 H        -1.490315         4.143126        -0.551761
 H        -3.418463         3.324392         0.801401
 H        -3.042845         0.822530        -0.029805
