19
Iteration:   714charge 0 multiplicity 1
 O        -3.038763         1.880212         2.983759
 C        -2.157980         1.950249         1.953025
 C        -0.773415         1.428040         2.101216
 C        -0.839586         1.281756         0.535784
 O        -0.235651         0.034458         0.052235
 C        -0.103284         2.444464        -0.038715
 C        -1.042235         3.658853         0.415280
 C        -2.304736         3.009191         0.802486
 C        -2.350284         1.505950         0.399893
 H        -3.929160         1.532517         2.659608
 H         0.015308         2.042966         2.544205
 H        -0.703370         0.389306         2.467510
 H         0.318720         0.311725        -0.692844
 H         0.927917         2.479036         0.372043
 H         0.052287         2.306892        -1.091854
 H        -0.480492         4.155430         1.241645
 H        -1.098387         4.326387        -0.468299
 H        -3.280008         3.418713         0.774124
 H        -3.154870         0.939736        -0.041468
