19
Iteration:  3766
 O        -3.013556         1.836542         3.033679
 C        -2.149871         1.972385         1.975593
 C        -0.746246         1.335507         2.060081
 C        -0.789950         1.238353         0.437468
 O        -0.105776         0.061311         0.063805
 C        -0.187630         2.554616        -0.015212
 C        -1.168697         3.701208         0.203476
 C        -2.376538         2.930755         0.813129
 C        -2.304658         1.520464         0.463029
 H        -3.172966         2.632377         3.457819
 H         0.154059         1.784393         2.447082
 H        -0.585215         0.467335         2.730400
 H        -0.690168        -0.662660         0.328873
 H         0.799732         2.838412         0.433050
 H         0.004373         2.377844        -1.105678
 H        -0.776401         4.431913         0.939733
 H        -1.300882         4.254096        -0.713430
 H        -3.307290         3.351676         0.982464
 H        -3.106890         0.994750         0.045745
