19
Iteration:  1509charge 0 multiplicity 1
 O        -3.051608         1.947335         2.911906
 C        -2.158951         1.941073         1.895142
 C        -0.760476         1.500479         2.137947
 C        -0.708607         1.319349         0.481350
 O        -0.334760        -0.001308         0.083689
 C        -0.125665         2.537821        -0.199926
 C        -1.064182         3.664183         0.467359
 C        -2.389061         2.870300         0.809940
 C        -2.277116         1.428164         0.506529
 H        -2.869217         1.287475         3.569505
 H        -0.047505         2.179379         2.594912
 H        -0.734927         0.499975         2.733562
 H         0.411850         0.101721        -0.502775
 H         0.958413         2.482590         0.106681
 H        -0.309536         2.456794        -1.278992
 H        -0.512563         3.915439         1.360487
 H        -1.174542         4.547248        -0.159688
 H        -3.312177         3.474603         0.666668
 H        -3.006975         0.663942         0.157170
