19
Iteration:  2741
 O        -3.035781         1.768739         3.131320
 C        -2.252344         1.946716         1.993194
 C        -0.755852         1.507528         2.080624
 C        -0.763856         1.227426         0.400981
 O        -0.149600         0.136670        -0.072400
 C        -0.149344         2.483967        -0.190499
 C        -0.956323         3.614917         0.265287
 C        -2.294716         2.987491         0.923698
 C        -2.426126         1.451798         0.641476
 H        -3.776832         2.425705         3.093656
 H         0.021910         2.315904         2.346810
 H        -0.524741         0.620422         2.687332
 H        -0.813335        -0.403092        -0.549284
 H         0.925056         2.544868         0.114974
 H        -0.115123         2.261026        -1.274085
 H        -0.396182         4.250490         0.955656
 H        -1.325094         4.362759        -0.388955
 H        -3.183340         3.515602         0.760410
 H        -3.235393         0.855043         0.300205
