19
Iteration:  1146charge 0 multiplicity 1
 O        -3.090525         1.771695         2.975450
 C        -2.202862         1.943095         1.921550
 C        -0.794947         1.550060         2.064112
 C        -0.717000         1.265574         0.547962
 O        -0.260679         0.073131         0.050480
 C        -0.075534         2.461352        -0.182478
 C        -1.022156         3.614577         0.330412
 C        -2.309761         3.018011         0.827350
 C        -2.355950         1.553955         0.487753
 H        -2.528466         1.301039         3.602568
 H        -0.151914         2.292820         2.582887
 H        -0.781854         0.546574         2.638169
 H        -0.450550        -0.615907         0.694933
 H         0.986597         2.743451         0.085054
 H        -0.285032         2.247871        -1.236665
 H        -0.547568         4.203894         1.147850
 H        -1.199637         4.398012        -0.490341
 H        -3.252290         3.561854         0.849389
 H        -3.014302         0.805071         0.103817
