19
Iteration:  2329charge 0 multiplicity 1
 O        -2.935250         2.105224         3.118881
 C        -2.108396         1.816711         2.011677
 C        -0.719230         1.283968         1.990583
 C        -0.790262         1.230848         0.450783
 O        -0.370866        -0.006382        -0.004136
 C        -0.063748         2.688112        -0.057425
 C        -1.277263         3.724243         0.263745
 C        -2.353818         2.823685         0.887066
 C        -2.277171         1.441752         0.402365
 H        -2.640422         1.526475         3.860112
 H        -0.055693         1.979329         2.583760
 H        -0.596344         0.233071         2.484667
 H         0.325283        -0.210355         0.606716
 H         0.966989         2.966318         0.191039
 H         0.021209         2.771683        -1.130845
 H        -0.910895         4.557697         0.799221
 H        -1.463095         4.026527        -0.764304
 H        -3.416047         3.175308         0.959431
 H        -2.840947         1.160865        -0.451539
