19
Iteration:  1472
 O        -3.230967         1.877419         3.016916
 C        -2.198220         1.916548         2.059435
 C        -0.689071         1.447685         2.079938
 C        -0.746449         1.256613         0.488750
 O        -0.181467        -0.003781         0.066710
 C        -0.200992         2.457604        -0.351967
 C        -0.971377         3.680268         0.340279
 C        -2.307790         3.028774         0.920414
 C        -2.288529         1.543852         0.524452
 H        -3.777706         1.063079         3.043073
 H        -0.035238         2.235462         2.542124
 H        -0.589228         0.523861         2.707084
 H         0.749933         0.095006        -0.094041
 H         0.915773         2.650244        -0.277235
 H        -0.352726         2.197735        -1.412795
 H        -0.301566         4.164648         1.088497
 H        -1.324706         4.508527        -0.313892
 H        -3.289150         3.482533         0.845719
 H        -3.151509         1.003293         0.163039
