19
Iteration:  4147
 O        -3.104275         1.833153         2.969404
 C        -2.165632         1.972529         1.961748
 C        -0.743207         1.353451         2.077873
 C        -0.736207         1.291708         0.472305
 O        -0.137790         0.057937         0.023718
 C        -0.113168         2.507662        -0.052392
 C        -1.134826         3.647467         0.277970
 C        -2.366350         2.997216         0.877477
 C        -2.315113         1.439052         0.547695
 H        -3.593695         2.621975         3.153656
 H         0.033788         2.038987         2.442978
 H        -0.680769         0.373015         2.441005
 H        -0.287160        -0.025307        -0.918311
 H         0.799481         2.530966         0.542433
 H         0.145310         2.549409        -1.129448
 H        -0.599034         4.120364         1.112042
 H        -1.358733         4.392199        -0.513884
 H        -3.152950         3.747971         1.057771
 H        -3.116237         0.754621         0.331935
