19
Iteration:  1095charge 0 multiplicity 1
 O        -3.190619         1.776100         2.894789
 C        -2.095862         1.956949         2.052053
 C        -0.622582         1.429417         2.197320
 C        -0.731368         1.292092         0.451646
 O        -0.207118         0.034908         0.065044
 C        -0.152174         2.496781        -0.259943
 C        -1.044589         3.675153         0.291586
 C        -2.343294         2.982732         0.982020
 C        -2.306495         1.479513         0.536343
 H        -3.601553         2.707036         3.012027
 H         0.090134         2.184679         2.735853
 H        -0.578213         0.415079         2.473495
 H        -1.027373        -0.363521        -0.175242
 H         0.855566         2.607233         0.112658
 H        -0.220551         2.337440        -1.352765
 H        -0.461447         4.455883         0.847772
 H        -1.400296         4.283548        -0.556070
 H        -3.299038         3.501680         1.041477
 H        -3.010509         1.012398        -0.143393
