19
Iteration:  4782
 O        -3.117579         1.815682         2.953624
 C        -2.167382         1.979447         1.920815
 C        -0.696583         1.472258         1.970233
 C        -0.824419         1.241153         0.487431
 O        -0.233332        -0.052736         0.163259
 C        -0.106731         2.604354        -0.150096
 C        -1.035321         3.707886         0.384683
 C        -2.385927         3.014519         0.948024
 C        -2.281169         1.470582         0.495299
 H        -3.187508         0.878264         3.222701
 H        -0.077552         2.319553         2.138450
 H        -0.411272         0.513170         2.485154
 H         0.159790        -0.051869        -0.706859
 H         0.997035         2.586920         0.106454
 H        -0.263039         2.450498        -1.230788
 H        -0.618456         4.270921         1.231678
 H        -1.228701         4.399065        -0.475271
 H        -3.299041         3.596135         1.029405
 H        -3.070687         0.825835         0.021274
