19
Iteration:  3476charge 0 multiplicity 1
 O        -3.135262         1.766839         3.010267
 C        -2.105531         1.982605         1.975643
 C        -0.728707         1.432730         2.099459
 C        -0.718631         1.229957         0.570863
 O        -0.110975         0.092715         0.048135
 C        -0.209510         2.481153        -0.169969
 C        -1.105585         3.710773         0.172825
 C        -2.301523         2.994107         0.827840
 C        -2.389804         1.453067         0.630569
 H        -3.089264         2.524696         3.699146
 H         0.022132         2.059460         2.616070
 H        -0.811967         0.345113         2.429635
 H        -0.268309        -0.076242        -0.877261
 H         0.785396         2.643990         0.291914
 H        -0.152105         2.162774        -1.282731
 H        -0.600731         4.375416         0.900954
 H        -1.367011         4.343039        -0.685818
 H        -3.230046         3.548235         0.841461
 H        -3.213118         0.780943         0.211307
