19
Iteration:  3924charge 0 multiplicity 1
 O        -3.286858         1.661962         2.861502
 C        -2.119799         2.051828         2.017958
 C        -0.592601         1.452352         2.061913
 C        -0.723444         1.256348         0.506367
 O        -0.272815         0.003393         0.081974
 C        -0.153402         2.570903        -0.198255
 C        -1.005993         3.687237         0.288845
 C        -2.310496         2.987024         0.867220
 C        -2.306841         1.540657         0.577910
 H        -3.234103         2.255125         3.646581
 H         0.165555         2.161458         2.364701
 H        -0.676979         0.423103         2.557425
 H         0.546714        -0.301190         0.509756
 H         0.956018         2.691664        -0.205091
 H        -0.487423         2.331054        -1.243845
 H        -0.574300         4.324729         1.102969
 H        -1.442373         4.465902        -0.382382
 H        -3.241843         3.467384         0.989725
 H        -3.092519         0.849302         0.453597
