19
Iteration:  1948
 O        -2.993818         2.099002         3.097814
 C        -2.205023         1.869719         1.995342
 C        -0.737101         1.303264         2.109963
 C        -0.729681         1.278146         0.508914
 O        -0.320213         0.068780        -0.059946
 C        -0.073841         2.622851        -0.069077
 C        -1.128610         3.679227         0.210436
 C        -2.436808         2.860698         0.859803
 C        -2.213147         1.385912         0.470185
 H        -3.673700         1.390101         3.305488
 H        -0.127746         2.041937         2.650749
 H        -0.846070         0.234843         2.493338
 H         0.660276        -0.008246         0.074568
 H         0.924098         2.691819         0.418262
 H         0.057219         2.491389        -1.149899
 H        -0.554230         4.304864         0.905647
 H        -1.389581         4.177350        -0.754629
 H        -3.507733         3.142714         0.886672
 H        -2.809495         0.739055        -0.101432
