19
Iteration:   424charge 0 multiplicity 1
 O        -3.357820         1.870310         2.849666
 C        -2.201805         2.003326         2.000377
 C        -0.722802         1.466876         2.144848
 C        -0.652909         1.285516         0.540308
 O        -0.314457         0.043086         0.032539
 C        -0.074699         2.509231        -0.238300
 C        -1.001663         3.631033         0.393623
 C        -2.300373         2.938402         0.900350
 C        -2.173452         1.402579         0.568459
 H        -3.009279         1.834138         3.776481
 H         0.198182         2.021234         2.557549
 H        -0.735426         0.442131         2.659040
 H         0.434607         0.077454        -0.559180
 H         0.924358         2.742472         0.032549
 H        -0.225429         2.228333        -1.275524
 H        -0.422896         4.306871         1.096682
 H        -1.292060         4.450482        -0.353206
 H        -3.301371         3.373543         0.736761
 H        -2.875887         0.941261        -0.141886
