19
Iteration:  4996
 O        -3.113046         1.880714         2.969508
 C        -2.175192         1.905572         1.951222
 C        -0.687851         1.414508         2.064402
 C        -0.706698         1.252827         0.479989
 O        -0.160977         0.036639         0.151937
 C        -0.171148         2.551589        -0.264692
 C        -1.045158         3.673321         0.443378
 C        -2.394659         2.995320         0.833829
 C        -2.319782         1.497902         0.542844
 H        -3.543614         1.006417         3.004138
 H         0.032067         2.171905         2.305075
 H        -0.558602         0.436856         2.526584
 H        -0.425719        -0.065507        -0.801837
 H         0.868736         2.779801        -0.013975
 H        -0.380654         2.608711        -1.398989
 H        -0.761007         3.992499         1.499799
 H        -1.113507         4.461621        -0.291346
 H        -3.286104         3.603103         0.800246
 H        -3.016293         0.715339         0.184649
