19
Iteration:   687charge 0 multiplicity 1
 O        -3.034778         1.837306         3.093895
 C        -2.229958         1.984058         1.961782
 C        -0.931741         1.318778         1.988153
 C        -0.769767         1.279795         0.509717
 O        -0.163740        -0.064871         0.139839
 C        -0.005776         2.581441        -0.011774
 C        -1.044730         3.736995         0.279383
 C        -2.281725         3.079912         0.826059
 C        -2.367552         1.545422         0.409178
 H        -3.526831         0.957731         2.967820
 H        -0.057104         1.855752         2.479331
 H        -0.963418         0.244713         2.308958
 H        -0.235182        -0.081957        -0.842855
 H         0.983994         2.783135         0.428358
 H         0.169288         2.351376        -1.152318
 H        -0.522060         4.315028         1.025240
 H        -1.258468         4.207486        -0.687301
 H        -3.308260         3.544387         0.781800
 H        -3.106998         1.028842        -0.222838
