19
Iteration:   334
 O        -3.133030         1.971095         2.961923
 C        -2.200020         1.935021         1.972350
 C        -0.802652         1.306482         2.035417
 C        -0.706553         1.255291         0.507134
 O        -0.125324         0.094988        -0.021602
 C        -0.182188         2.440295        -0.018252
 C        -1.060210         3.665014         0.340871
 C        -2.305865         2.971358         0.804138
 C        -2.256876         1.517155         0.556379
 H        -4.051463         1.632914         2.728916
 H        -0.039591         1.919044         2.605172
 H        -0.786026         0.213481         2.520595
 H         0.264230        -0.275560         0.779670
 H         0.879566         2.675666         0.151229
 H        -0.340606         2.334730        -1.094489
 H        -0.575088         4.336690         1.127389
 H        -1.236916         4.250257        -0.646914
 H        -3.247328         3.512979         0.729005
 H        -3.134837         1.137981         0.036385
