19
Iteration:  2887
 O        -3.049329         1.958334         3.089895
 C        -2.148403         1.829282         2.029810
 C        -0.784988         1.354744         2.059878
 C        -0.741463         1.244825         0.517954
 O        -0.171134        -0.003021         0.031203
 C        -0.126078         2.626751        -0.190636
 C        -1.179482         3.683534         0.336479
 C        -2.328108         2.895333         0.879415
 C        -2.273749         1.442721         0.426914
 H        -3.171277         2.873772         3.252222
 H         0.071445         1.874135         2.530565
 H        -0.735496         0.311028         2.525862
 H        -0.398814         0.000929        -0.920761
 H         0.808748         2.856885         0.300070
 H        -0.025655         2.662623        -1.285039
 H        -0.670644         4.312605         1.077108
 H        -1.618307         4.388494        -0.422903
 H        -3.301787         3.385799         0.836414
 H        -3.018543         0.990163        -0.179045
