19
Iteration:  4552
 O        -3.042466         1.984249         2.960039
 C        -2.163407         1.945628         1.964144
 C        -0.691224         1.413309         2.042570
 C        -0.672326         1.237810         0.464037
 O        -0.311569         0.038996        -0.028408
 C        -0.168192         2.565933         0.006352
 C        -1.170930         3.686295         0.373990
 C        -2.359495         2.910392         0.828074
 C        -2.321475         1.422574         0.440753
 H        -2.848395         1.167370         3.560188
 H         0.086709         2.035186         2.545993
 H        -0.616456         0.397796         2.455993
 H         0.522907        -0.219244         0.340603
 H         0.731924         2.629589         0.525374
 H         0.225135         2.465726        -1.017629
 H        -0.635417         4.307082         1.152926
 H        -1.410497         4.438990        -0.389959
 H        -3.371084         3.367160         0.834677
 H        -3.044630         0.740253        -0.002424
