19
Iteration:  1532
 O        -3.123201         1.940828         3.019462
 C        -2.139961         1.962474         1.980435
 C        -0.716112         1.360567         2.005558
 C        -0.735585         1.252874         0.530253
 O        -0.285133        -0.010800         0.050258
 C        -0.099815         2.553827        -0.040514
 C        -1.110920         3.731437         0.280341
 C        -2.363867         2.912791         0.764927
 C        -2.280127         1.467822         0.508443
 H        -2.923779         1.502840         3.920673
 H         0.103765         1.840470         2.565930
 H        -0.861234         0.322040         2.400673
 H         0.574503         0.209347        -0.346401
 H         0.890184         2.847270         0.379956
 H        -0.077755         2.340034        -1.121357
 H        -0.635241         4.400033         0.995417
 H        -1.295392         4.250847        -0.649823
 H        -3.369026         3.424820         0.801820
 H        -3.103427         0.958687        -0.054965
