19
Iteration:   695charge 0 multiplicity 1
 O        -2.999201         1.832235         3.080137
 C        -2.256338         1.956737         1.895247
 C        -0.886703         1.331459         1.987512
 C        -0.781720         1.246075         0.488566
 O        -0.180262        -0.026934         0.140205
 C        -0.061635         2.577505         0.001509
 C        -1.002601         3.712453         0.296387
 C        -2.308538         3.056220         0.803626
 C        -2.357202         1.540884         0.468442
 H        -3.599944         1.058208         2.894670
 H        -0.105357         1.857065         2.486251
 H        -1.140409         0.408386         2.584026
 H         0.019424        -0.126143        -0.823056
 H         0.916464         2.564503         0.491794
 H         0.135723         2.524753        -1.088047
 H        -0.597093         4.458454         0.971569
 H        -1.163055         4.357915        -0.623702
 H        -3.164351         3.719494         0.762822
 H        -3.149011         1.114157        -0.104811
