19
Iteration:  2857charge 0 multiplicity 1
 O        -2.975225         1.954227         3.072938
 C        -2.125106         1.852219         1.987776
 C        -0.731686         1.400698         2.104684
 C        -0.703348         1.260928         0.588334
 O        -0.365603         0.042457        -0.062945
 C        -0.132397         2.550680        -0.099617
 C        -1.148071         3.685686         0.311810
 C        -2.380222         2.916252         0.757341
 C        -2.240400         1.438877         0.576578
 H        -3.892462         1.813219         2.705082
 H         0.147710         1.917723         2.485738
 H        -0.713700         0.349616         2.482090
 H         0.350083         0.352688        -0.628565
 H         0.892523         2.712189         0.209660
 H        -0.133523         2.468617        -1.192858
 H        -0.753354         4.387953         1.079259
 H        -1.437888         4.476686        -0.426084
 H        -3.271961         3.452802         0.782363
 H        -2.779480         0.732806        -0.009675
