19
Iteration:  4223
 O        -3.092715         1.804712         3.064667
 C        -2.160831         1.950250         1.924815
 C        -0.745222         1.476558         2.020288
 C        -0.729754         1.230236         0.484116
 O        -0.253188        -0.018613        -0.041937
 C        -0.198896         2.526258        -0.110491
 C        -1.071066         3.735001         0.380272
 C        -2.286711         2.972691         0.865247
 C        -2.287375         1.409942         0.562155
 H        -3.834908         2.477564         2.849870
 H         0.169021         2.156902         2.302979
 H        -0.870333         0.562521         2.540272
 H         0.698512         0.071495         0.220399
 H         0.712031         2.764919         0.354993
 H        -0.021313         2.678877        -1.210779
 H        -0.621672         4.239129         1.222268
 H        -1.244611         4.362851        -0.481407
 H        -3.291582         3.420608         0.840375
 H        -2.984728         0.941405        -0.156540
