19
Iteration:  4894charge 0 multiplicity 1
 O        -3.055019         1.877471         3.078454
 C        -2.153319         1.927377         1.976319
 C        -0.736651         1.317537         2.128183
 C        -0.744081         1.233620         0.608499
 O        -0.308045         0.031814         0.028137
 C        -0.019437         2.653301        -0.049523
 C        -1.158016         3.716911         0.218150
 C        -2.371276         2.930628         0.773177
 C        -2.217629         1.474396         0.439736
 H        -3.102496         0.915960         3.097823
 H        -0.037181         2.000773         2.547028
 H        -1.035098         0.383519         2.751623
 H        -0.332432         0.169531        -0.931163
 H         0.875369         2.993704         0.438004
 H         0.190118         2.320809        -1.122503
 H        -0.843989         4.654201         0.812293
 H        -1.547638         4.267415        -0.650778
 H        -3.349176         3.436453         0.990550
 H        -2.781312         1.140538        -0.401927
