19
Iteration:  4538charge 0 multiplicity 1
 O        -3.090338         2.016401         2.954661
 C        -2.104698         1.912810         1.904756
 C        -0.740716         1.378203         1.990633
 C        -0.820172         1.230137         0.493193
 O        -0.190120        -0.066719        -0.074110
 C        -0.121769         2.602068        -0.007475
 C        -1.145863         3.713923         0.392600
 C        -2.368181         2.932053         0.884177
 C        -2.293887         1.442406         0.548067
 H        -2.951361         1.308293         3.573811
 H         0.090946         1.945195         2.402575
 H        -0.773487         0.491265         2.559805
 H         0.737169        -0.039903         0.314974
 H         0.859491         2.803875         0.378231
 H        -0.105401         2.665359        -1.003011
 H        -0.930698         4.372956         1.107273
 H        -1.370741         4.155210        -0.585014
 H        -3.393402         3.475418         1.027608
 H        -3.115440         0.966524         0.015142
