19
Iteration:  1955charge 0 multiplicity 1
 O        -2.961236         2.080975         3.103134
 C        -2.203055         1.889899         1.945905
 C        -0.711516         1.325618         2.072745
 C        -0.736252         1.286224         0.480926
 O        -0.311538         0.015192        -0.025937
 C        -0.113162         2.580494        -0.080240
 C        -1.160899         3.662321         0.260235
 C        -2.453806         2.880357         0.854454
 C        -2.191811         1.457969         0.464998
 H        -3.555488         1.394412         3.335414
 H        -0.124384         1.901850         2.846664
 H        -0.842028         0.248825         2.428281
 H         0.592459        -0.285655         0.292743
 H         0.771514         2.868831         0.556932
 H         0.203083         2.588206        -1.131044
 H        -0.885231         4.453468         1.000544
 H        -1.298445         4.202565        -0.726768
 H        -3.505453         3.173514         0.784606
 H        -2.726249         0.806770        -0.251649
