19
Iteration:  1796
 O        -3.195365         2.043566         2.993467
 C        -2.183610         1.862128         2.003363
 C        -0.754720         1.253040         2.196916
 C        -0.704396         1.260606         0.566833
 O        -0.164084         0.126581        -0.086937
 C        -0.137204         2.514102        -0.242476
 C        -1.151157         3.723783         0.183280
 C        -2.251106         2.960657         0.940854
 C        -2.236129         1.462428         0.573914
 H        -3.414724         1.151505         3.308059
 H        -0.016591         1.933948         2.613450
 H        -0.611990         0.238268         2.612594
 H         0.128508        -0.589013         0.547990
 H         0.852582         2.798031         0.119938
 H        -0.054869         2.021215        -1.218426
 H        -0.613248         4.467079         0.770066
 H        -1.713510         4.239558        -0.595183
 H        -3.298614         3.297647         1.109247
 H        -3.065322         1.170030        -0.088105
