19
Iteration:  2814charge 0 multiplicity 1
 O        -3.110393         1.782866         3.054432
 C        -2.230330         1.914790         2.008827
 C        -0.660506         1.417897         2.019416
 C        -0.790423         1.331023         0.513466
 O        -0.261802         0.052552         0.014535
 C        -0.178065         2.496394        -0.280075
 C        -1.052762         3.647552         0.265652
 C        -2.276691         3.030500         0.957645
 C        -2.316131         1.555748         0.520805
 H        -2.940448         1.152309         3.722723
 H         0.005258         2.137589         2.444216
 H        -0.468534         0.497519         2.544449
 H         0.380102        -0.356729         0.578161
 H         0.837524         2.726461         0.050195
 H        -0.217743         2.248428        -1.350964
 H        -0.446811         4.365783         0.859246
 H        -1.396132         4.368059        -0.515183
 H        -3.228984         3.469944         0.933755
 H        -3.097930         1.176236        -0.080199
