19
Iteration:  2132charge 0 multiplicity 1
 O        -2.995462         2.006008         3.110115
 C        -2.081301         2.015315         1.999032
 C        -0.739132         1.252240         2.152324
 C        -0.760610         1.218376         0.502387
 O        -0.310903         0.060545        -0.133862
 C        -0.076156         2.571435        -0.099460
 C        -1.204283         3.717571         0.188145
 C        -2.305861         2.955356         0.815966
 C        -2.336074         1.382398         0.601599
 H        -3.681296         1.424967         2.855126
 H         0.122473         1.640253         2.639265
 H        -0.869493         0.242493         2.619341
 H         0.624411        -0.008805         0.246287
 H         0.809094         2.868029         0.519348
 H         0.130569         2.629201        -1.146563
 H        -0.996654         4.514971         0.906482
 H        -1.474576         4.138850        -0.842221
 H        -3.293884         3.376405         0.980230
 H        -3.007064         0.641290         0.042649
