19
Iteration:  3940
 O        -3.141087         1.746113         2.883371
 C        -2.120590         1.945985         2.000820
 C        -0.724681         1.347727         2.144201
 C        -0.682470         1.283394         0.596043
 O        -0.316394        -0.009558         0.041988
 C        -0.192159         2.562577        -0.181840
 C        -1.153129         3.764221         0.271596
 C        -2.293889         3.030582         0.858985
 C        -2.188169         1.477991         0.562869
 H        -3.271626         2.577479         3.465549
 H         0.141960         1.848729         2.655706
 H        -0.958857         0.357541         2.452732
 H         0.664171         0.024599         0.197487
 H         0.845931         2.774463         0.091633
 H        -0.232623         2.432294        -1.248609
 H        -0.644084         4.466105         0.927360
 H        -1.290435         4.260615        -0.681180
 H        -3.335406         3.448196         0.751880
 H        -2.924226         0.943552        -0.089186
