19
Iteration:  1495charge 0 multiplicity 1
 O        -3.145468         1.959666         3.012217
 C        -2.216407         1.891505         1.948350
 C        -0.722836         1.615319         2.046112
 C        -0.734379         1.221236         0.544166
 O        -0.299125        -0.008049         0.063398
 C        -0.208841         2.494334        -0.202508
 C        -0.971531         3.640450         0.484033
 C        -2.286365         2.925524         0.828160
 C        -2.229336         1.416315         0.460223
 H        -3.217714         0.978649         3.308097
 H        -0.094087         2.384696         2.493898
 H        -0.549205         0.565481         2.526888
 H         0.501997         0.089810        -0.530541
 H         0.882349         2.815475        -0.319793
 H        -0.530179         2.479963        -1.252021
 H        -0.613798         4.151831         1.372788
 H        -1.194837         4.454876        -0.248472
 H        -3.302329         3.237430         0.774857
 H        -2.917904         1.037687        -0.269812
