19
Iteration:  3624charge 0 multiplicity 1
 O        -3.069262         1.951015         2.979948
 C        -2.081951         1.974918         1.987134
 C        -0.677688         1.348343         2.058702
 C        -0.772476         1.222267         0.578026
 O        -0.158929         0.015442        -0.056670
 C        -0.118760         2.579246         0.060693
 C        -1.186360         3.696570         0.203505
 C        -2.404885         2.842115         0.769247
 C        -2.328119         1.434807         0.599837
 H        -2.997763         2.740838         3.455770
 H         0.142163         1.840898         2.598995
 H        -0.924563         0.381623         2.603312
 H        -0.455841         0.017042        -0.991308
 H         0.810441         2.817926         0.629756
 H         0.047811         2.717571        -1.039115
 H        -0.810417         4.467813         0.971298
 H        -1.346869         4.239245        -0.754799
 H        -3.415594         3.342687         0.701240
 H        -3.130395         0.662760         0.328005
