19
Iteration:  4590
 O        -3.122288         1.820153         3.098851
 C        -2.202325         1.922577         1.943729
 C        -0.751970         1.460201         2.129692
 C        -0.678953         1.329642         0.568068
 O        -0.321360         0.007804        -0.020682
 C        -0.166196         2.509285        -0.202610
 C        -1.054145         3.754180         0.271756
 C        -2.283421         2.969985         0.879796
 C        -2.211570         1.470546         0.498797
 H        -3.466227         0.888117         2.993498
 H        -0.181159         2.236984         2.676693
 H        -0.691128         0.414555         2.591676
 H         0.645575        -0.185909        -0.017575
 H         0.938845         2.728955         0.082634
 H        -0.324526         2.296287        -1.327304
 H        -0.582804         4.451666         1.060445
 H        -1.426420         4.359297        -0.590884
 H        -3.220231         3.516601         0.614072
 H        -2.994254         0.929211        -0.037838
