19
Iteration:  3018charge 0 multiplicity 1
 O        -2.978461         1.754689         3.226751
 C        -2.265568         1.969081         1.954915
 C        -0.825671         1.445311         2.111716
 C        -0.711861         1.292910         0.557654
 O        -0.076777         0.069653         0.027458
 C        -0.217723         2.458208        -0.181024
 C        -1.067306         3.695576         0.178095
 C        -2.380637         2.988837         0.818058
 C        -2.327723         1.503638         0.536193
 H        -3.733494         2.324027         3.417812
 H        -0.031398         1.957342         2.685057
 H        -0.961464         0.342850         2.441142
 H        -0.045836         0.029497        -0.919780
 H         0.870063         2.506867        -0.037415
 H        -0.216760         2.188258        -1.301471
 H        -0.419458         4.288762         0.827983
 H        -1.500899         4.397017        -0.533240
 H        -3.289578         3.326156         0.395951
 H        -2.801555         1.081342        -0.371067
