19
Iteration:  2636charge 0 multiplicity 1
 O        -3.071068         1.853481         3.167307
 C        -2.231761         1.889575         2.035979
 C        -0.761938         1.489748         2.193764
 C        -0.747642         1.222773         0.459195
 O        -0.283860         0.043696        -0.043442
 C        -0.196120         2.523533        -0.319371
 C        -0.995458         3.658161         0.194987
 C        -2.194899         3.038990         0.914930
 C        -2.309117         1.467766         0.588880
 H        -3.685768         1.124648         2.985062
 H        -0.079615         2.147605         2.652076
 H        -0.631730         0.517189         2.711930
 H         0.563405         0.193126        -0.513356
 H         0.880494         2.604679        -0.113532
 H        -0.326411         2.369059        -1.415954
 H        -0.495574         4.246430         0.968230
 H        -1.476163         4.264704        -0.605605
 H        -3.241111         3.447780         0.882180
 H        -3.165277         1.121684         0.017665
