19
Iteration:  4172
 O        -2.980581         1.898040         3.049275
 C        -2.200000         2.023024         1.980598
 C        -0.837826         1.253563         2.109365
 C        -0.729001         1.259742         0.589115
 O        -0.157043         0.022833        -0.059307
 C        -0.137466         2.545933         0.017053
 C        -1.156667         3.737012         0.292504
 C        -2.333617         2.905430         0.750888
 C        -2.277514         1.459566         0.528383
 H        -3.736808         2.538122         3.107779
 H        -0.001923         1.676871         2.545227
 H        -0.917498         0.158288         2.301426
 H         0.274537         0.424067        -0.810949
 H         0.995299         2.638478         0.290815
 H        -0.244993         2.505587        -1.027446
 H        -0.823660         4.426969         1.142140
 H        -1.371068         4.255276        -0.648096
 H        -3.295186         3.225669         0.424069
 H        -3.183656         1.077808        -0.008640
