19
Iteration:  4411
 O        -3.127167         1.787770         3.055576
 C        -2.211811         1.983384         1.970612
 C        -0.755557         1.410497         2.128256
 C        -0.681531         1.303041         0.566112
 O        -0.308677         0.058175         0.002726
 C        -0.150519         2.536214        -0.151609
 C        -1.060444         3.685216         0.270687
 C        -2.299275         3.015225         0.854087
 C        -2.189470         1.477980         0.420896
 H        -2.916225         0.867101         3.444752
 H        -0.076955         2.012720         2.804340
 H        -0.961021         0.399625         2.561492
 H         0.471451        -0.325309         0.377253
 H         0.923873         2.757291        -0.399958
 H        -0.529747         2.416748        -1.277220
 H        -0.521124         4.409070         1.003339
 H        -1.355998         4.422798        -0.456195
 H        -3.391347         3.335353         0.724443
 H        -3.068771         1.112743        -0.061775
