19
Iteration:   631charge 0 multiplicity 1
 O        -3.298144         1.952135         2.873645
 C        -2.119257         1.970694         1.943105
 C        -0.657987         1.431396         2.176196
 C        -0.732830         1.216280         0.473815
 O        -0.222042         0.026959        -0.068000
 C        -0.092027         2.498911        -0.074007
 C        -1.036626         3.609541         0.454306
 C        -2.333483         2.984192         0.822923
 C        -2.244692         1.486770         0.561087
 H        -3.337601         1.456027         3.674204
 H         0.195478         2.061846         2.437576
 H        -0.731260         0.545386         2.813888
 H        -0.630819         0.027267        -0.983678
 H         0.950349         2.570052         0.294645
 H        -0.093082         2.421336        -1.241306
 H        -0.625978         4.120558         1.312368
 H        -1.091198         4.430379        -0.303489
 H        -3.318195         3.425545         0.937601
 H        -2.974191         0.783561         0.233621
