19
Iteration:  2997
 O        -2.941930         1.729651         3.045934
 C        -2.095664         2.020986         1.936064
 C        -0.744392         1.508440         2.039199
 C        -0.776549         1.240760         0.502733
 O        -0.207910         0.037536         0.166868
 C        -0.171228         2.555555        -0.162485
 C        -1.133494         3.659341         0.331284
 C        -2.387271         2.961845         0.793863
 C        -2.344753         1.457787         0.510957
 H        -3.924432         1.916299         2.833980
 H         0.060145         2.209642         2.352217
 H        -0.638117         0.566035         2.660393
 H        -0.131834        -0.079518        -0.804678
 H         0.907400         2.634417         0.010924
 H        -0.298599         2.425535        -1.274151
 H        -0.620715         4.284105         1.038270
 H        -1.325407         4.395419        -0.467860
 H        -3.176085         3.659992         0.771483
 H        -3.186718         0.727897         0.427572
