19
Iteration:   749
 O        -3.261462         1.875919         2.997472
 C        -2.182509         1.919757         1.979390
 C        -0.753839         1.460459         2.270154
 C        -0.733001         1.316420         0.487170
 O        -0.298815        -0.050898        -0.053546
 C        -0.160149         2.553393        -0.277068
 C        -0.964343         3.710581         0.441227
 C        -2.255346         2.884631         0.900605
 C        -2.161376         1.456523         0.534433
 H        -3.770271         2.544076         2.401399
 H        -0.078696         2.006539         2.851485
 H        -0.645060         0.337042         2.400876
 H         0.601780         0.108819        -0.397415
 H         0.909867         2.505006        -0.125862
 H        -0.522450         2.389295        -1.231928
 H        -0.353703         4.223405         1.219852
 H        -1.259466         4.614631        -0.222596
 H        -3.072562         3.380535         0.387632
 H        -2.905067         0.939224        -0.046631
