19
Iteration:  2562
 O        -3.049687         1.882211         3.220454
 C        -2.214970         1.930126         2.043177
 C        -0.734648         1.562302         2.000632
 C        -0.752155         1.319148         0.482402
 O        -0.285492         0.097735        -0.077236
 C        -0.129608         2.483079        -0.237855
 C        -1.013976         3.582757         0.317259
 C        -2.329640         2.933585         0.903724
 C        -2.331998         1.464870         0.441840
 H        -2.962984         0.899969         3.502767
 H        -0.014960         2.318085         2.444254
 H        -0.488200         0.647334         2.598955
 H        -0.428823        -0.598230         0.616805
 H         0.897701         2.601748         0.086708
 H        -0.040507         2.162561        -1.298590
 H        -0.478613         4.215981         1.006196
 H        -1.339946         4.200192        -0.510375
 H        -3.211740         3.402470         0.422024
 H        -3.068349         1.047862        -0.210880
