19
Iteration:  3846
 O        -3.104714         1.827359         2.918375
 C        -2.123073         2.009080         2.028141
 C        -0.755488         1.388062         2.052901
 C        -0.751552         1.241429         0.491524
 O        -0.159806         0.045713         0.075066
 C        -0.092674         2.520101        -0.105025
 C        -1.139753         3.688876         0.310195
 C        -2.298599         2.960487         0.826918
 C        -2.327165         1.477075         0.551603
 H        -3.254917         2.533783         3.509066
 H         0.042972         1.932514         2.517929
 H        -0.897239         0.295959         2.443499
 H        -0.611883        -0.296266        -0.707109
 H         0.923209         2.829865         0.308286
 H         0.037237         2.292336        -1.190043
 H        -0.732641         4.483896         1.009976
 H        -1.617279         4.187379        -0.562241
 H        -3.278421         3.485243         1.006913
 H        -3.091769         0.739570         0.255326
