19
Iteration:  4526charge 0 multiplicity 1
 O        -3.133234         2.032499         3.004890
 C        -2.207330         1.945302         2.018345
 C        -0.756674         1.273761         2.082380
 C        -0.712445         1.212266         0.467273
 O        -0.149957        -0.009297        -0.079683
 C        -0.077342         2.580453        -0.124253
 C        -1.175466         3.737256         0.345865
 C        -2.316757         2.939290         0.905693
 C        -2.346219         1.461641         0.506106
 H        -3.081089         1.137680         3.514167
 H        -0.013244         1.967805         2.476049
 H        -0.737314         0.293511         2.549128
 H         0.781205         0.127426         0.130319
 H         0.983420         2.624806         0.158928
 H        -0.081617         2.406689        -1.136405
 H        -0.788231         4.408790         1.024982
 H        -1.524736         4.394251        -0.459024
 H        -3.324864         3.431030         0.870314
 H        -3.159468         0.919598         0.008223
