19
Iteration:   957
 O        -3.150613         1.702321         2.909291
 C        -2.185689         1.945740         1.977536
 C        -0.656223         1.540680         2.123278
 C        -0.778514         1.212362         0.571689
 O        -0.416457         0.018630         0.059209
 C        -0.082030         2.550386        -0.194646
 C        -0.975455         3.690767         0.261012
 C        -2.357408         3.003423         0.834072
 C        -2.264720         1.490608         0.504397
 H        -2.829015         1.950373         3.773654
 H         0.079327         2.250733         2.456991
 H        -0.663490         0.663710         2.906895
 H         0.555193        -0.159216         0.184229
 H         0.903283         2.716950         0.266362
 H        -0.109943         2.512317        -1.270716
 H        -0.318562         4.244178         0.937958
 H        -1.141890         4.450207        -0.520434
 H        -3.278718         3.561598         1.054659
 H        -3.117811         0.934339         0.138304
