19
Iteration:  1896charge 0 multiplicity 1
 O        -3.172154         1.876825         2.948516
 C        -2.156750         1.997158         1.993668
 C        -0.682854         1.413136         2.038361
 C        -0.718541         1.235364         0.511335
 O        -0.222044        -0.031262         0.100202
 C        -0.165570         2.504768        -0.208481
 C        -1.101957         3.712700         0.305754
 C        -2.261405         3.007531         0.889908
 C        -2.329060         1.502290         0.564252
 H        -2.982409         1.042278         3.506029
 H         0.021232         2.118690         2.596351
 H        -0.721553         0.480294         2.539585
 H         0.131211         0.208956        -0.762887
 H         0.906523         2.588712        -0.030504
 H        -0.306679         2.397972        -1.321260
 H        -0.660192         4.373079         1.072612
 H        -1.390788         4.320094        -0.523045
 H        -3.193191         3.569513         1.029806
 H        -3.086389         0.774691         0.339861
