19
Iteration:  2403charge 0 multiplicity 1
 O        -3.131875         1.857066         2.965544
 C        -2.136295         1.902938         2.053178
 C        -0.684248         1.564521         2.136868
 C        -0.686039         1.338399         0.516563
 O        -0.286160         0.003181         0.060947
 C        -0.310850         2.447795        -0.412242
 C        -1.030821         3.625059         0.334518
 C        -2.284742         3.004423         1.031402
 C        -2.227465         1.493788         0.639667
 H        -3.640026         0.996106         2.778404
 H        -0.001216         2.398361         2.304292
 H        -0.309931         0.621589         2.521587
 H         0.258713        -0.068519        -0.751881
 H         0.763916         2.321690        -0.716831
 H        -0.842968         2.241498        -1.388854
 H        -0.264326         4.224010         0.976542
 H        -1.308529         4.367862        -0.478002
 H        -3.286386         3.475559         1.080340
 H        -2.936568         1.015686         0.029091
