19
Iteration:  3769charge 0 multiplicity 1
 O        -3.009475         1.842383         3.034233
 C        -2.112070         1.972108         1.967324
 C        -0.748531         1.315378         2.077209
 C        -0.779497         1.243345         0.454474
 O        -0.120738         0.059169         0.035256
 C        -0.191458         2.560666        -0.008509
 C        -1.197215         3.687478         0.190776
 C        -2.373366         2.951096         0.789270
 C        -2.288892         1.523976         0.472981
 H        -3.229409         2.703416         3.507650
 H         0.122650         1.809641         2.456243
 H        -0.719272         0.385194         2.821297
 H        -0.561239        -0.724282         0.418749
 H         0.815531         2.800148         0.497759
 H         0.062046         2.391765        -1.079834
 H        -0.924279         4.431593         1.033473
 H        -1.274043         4.260984        -0.768771
 H        -3.370721         3.368400         1.048908
 H        -3.118193         0.975490        -0.016068
