19
Iteration:  3556charge 0 multiplicity 1
 O        -3.026219         1.635534         3.016217
 C        -2.205762         2.012733         1.951243
 C        -0.766224         1.606013         2.044907
 C        -0.834712         1.258280         0.541440
 O        -0.180148         0.018940         0.164723
 C        -0.217023         2.473842        -0.228791
 C        -1.010030         3.654807         0.279589
 C        -2.350008         3.005655         0.856303
 C        -2.293260         1.513053         0.545738
 H        -3.230229         2.442291         3.610420
 H         0.146238         2.096596         2.456204
 H        -0.770942         0.626244         2.420563
 H         0.048488         0.033161        -0.768682
 H         0.834115         2.575207         0.001018
 H        -0.213646         2.220653        -1.334521
 H        -0.452008         4.194708         1.092457
 H        -1.173907         4.393241        -0.546539
 H        -3.321031         3.547717         0.683787
 H        -3.022140         0.973166        -0.023311
