19
Iteration:   121
 O        -3.009594         1.842058         3.108481
 C        -2.242203         1.982488         1.903143
 C        -0.788517         1.521448         2.086829
 C        -0.665599         1.258339         0.578562
 O        -0.109417         0.079903         0.049801
 C        -0.044112         2.477695        -0.073655
 C        -1.173214         3.672321         0.183304
 C        -2.386867         2.901416         0.803161
 C        -2.287368         1.446260         0.455413
 H        -3.923531         2.210490         2.903136
 H        -0.096749         2.083957         2.756124
 H        -0.894370         0.493595         2.507083
 H        -0.805473        -0.569097         0.294238
 H         0.872892         2.756926         0.478575
 H         0.051776         2.270375        -1.179540
 H        -0.758444         4.397432         0.862988
 H        -1.484625         4.144788        -0.722872
 H        -3.407573         3.364682         0.663122
 H        -3.157780         0.854694         0.027762
