19
Iteration:   829
 O        -3.109717         1.854623         2.996931
 C        -2.140027         1.897734         1.947946
 C        -0.808204         1.413813         2.102356
 C        -0.736749         1.324362         0.555614
 O        -0.297757         0.070496         0.013748
 C        -0.079172         2.498978        -0.030712
 C        -1.067173         3.679062         0.276051
 C        -2.359225         2.979715         0.816744
 C        -2.203131         1.561627         0.432058
 H        -2.845481         1.047303         3.564309
 H        -0.068169         2.110098         2.482730
 H        -0.713328         0.422064         2.498403
 H        -0.763035        -0.591030         0.540718
 H         0.935547         2.592003         0.294595
 H         0.105489         2.370388        -1.111401
 H        -0.636565         4.407141         0.941158
 H        -1.136016         3.998409        -0.769768
 H        -3.379800         3.417683         0.849407
 H        -2.837718         1.047782        -0.302485
