19
Iteration:   234charge 0 multiplicity 1
 O        -3.214459         1.720251         2.894343
 C        -2.148276         1.996696         1.937332
 C        -0.773028         1.437046         2.024218
 C        -0.741782         1.291450         0.523845
 O        -0.200240         0.001216         0.296534
 C        -0.093293         2.520836        -0.190422
 C        -1.010800         3.707177         0.282178
 C        -2.353144         2.989619         0.824729
 C        -2.243431         1.541195         0.515150
 H        -2.966441         1.939219         3.799940
 H        -0.062787         2.188178         2.408321
 H        -0.659217         0.377319         2.510167
 H        -0.564787        -0.350665        -0.561683
 H         0.968854         2.662195         0.073543
 H        -0.188338         2.450665        -1.278483
 H        -0.628450         4.388146         1.066915
 H        -1.200751         4.489724        -0.509074
 H        -3.332052         3.452619         0.853227
 H        -2.947061         0.923152        -0.054602
