19
Iteration:  4412
 O        -3.122261         1.780449         3.055915
 C        -2.218730         1.976889         1.964774
 C        -0.750772         1.411489         2.128449
 C        -0.681743         1.307072         0.574676
 O        -0.315135         0.060611         0.006980
 C        -0.153530         2.531590        -0.162961
 C        -1.058179         3.696114         0.273064
 C        -2.305581         3.013154         0.852861
 C        -2.183209         1.481695         0.420894
 H        -2.934242         0.892741         3.457628
 H        -0.096935         2.022539         2.799457
 H        -0.969669         0.386347         2.604016
 H         0.466372        -0.348684         0.367755
 H         0.936997         2.748215        -0.416906
 H        -0.485171         2.407165        -1.263116
 H        -0.499413         4.423074         0.983419
 H        -1.335575         4.439516        -0.454491
 H        -3.385796         3.323845         0.734397
 H        -3.060407         1.114086        -0.077793
