19
Iteration:  4378charge 0 multiplicity 1
 O        -3.129580         2.058572         2.988801
 C        -2.127571         1.829301         1.922785
 C        -0.679555         1.362220         2.046017
 C        -0.754716         1.196115         0.459959
 O        -0.193965         0.087632        -0.041552
 C        -0.130042         2.538059        -0.067284
 C        -1.092099         3.714774         0.301184
 C        -2.379674         2.987972         0.952082
 C        -2.362322         1.357727         0.538872
 H        -3.504448         1.213256         3.133281
 H         0.148259         2.023847         2.440560
 H        -0.511005         0.336528         2.427215
 H         0.759326         0.224323         0.158598
 H         0.823784         2.647913         0.485921
 H        -0.116478         2.408015        -1.184134
 H        -0.631160         4.077321         1.252833
 H        -1.341987         4.458203        -0.431833
 H        -3.452787         3.362196         0.934800
 H        -3.268362         0.959368         0.139074
