19
Iteration:   775
 O        -3.218168         1.767110         2.921338
 C        -2.192119         1.960793         1.871706
 C        -0.721884         1.382183         2.095685
 C        -0.702423         1.303827         0.599481
 O        -0.266130         0.070985         0.033826
 C        -0.175840         2.470098        -0.216623
 C        -0.989626         3.653452         0.449298
 C        -2.275913         3.017013         0.870335
 C        -2.296921         1.506639         0.506418
 H        -3.242212         2.700234         3.358824
 H         0.112375         2.062873         2.439462
 H        -0.645365         0.396244         2.471087
 H         0.608161        -0.156040         0.430064
 H         0.912817         2.552531        -0.142628
 H        -0.542190         2.197233        -1.265700
 H        -0.347544         4.158103         1.199674
 H        -1.149650         4.337749        -0.418305
 H        -3.135223         3.737688         0.804001
 H        -3.154995         0.946906         0.083889
