19
Iteration:    33charge 0 multiplicity 1
 O        -3.014236         1.846615         3.103640
 C        -2.336250         1.930383         1.899887
 C        -0.772962         1.541792         2.010757
 C        -0.723300         1.244480         0.523223
 O        -0.035194         0.099979         0.187281
 C        -0.207442         2.482660        -0.184494
 C        -1.017415         3.635462         0.318451
 C        -2.427924         2.951776         0.653427
 C        -2.310704         1.449022         0.526876
 H        -3.995293         1.570472         3.127569
 H        -0.120216         2.231722         2.248265
 H        -0.640682         0.760631         2.726530
 H         0.015328        -0.539296         0.931432
 H         0.884478         2.587665         0.104914
 H        -0.393721         2.400413        -1.309016
 H        -0.577562         4.117152         1.181340
 H        -1.064883         4.331262        -0.514078
 H        -3.381180         3.433338         0.468452
 H        -2.954686         1.014143        -0.232497
