19
Iteration:  4862
 O        -3.184459         1.983495         2.958656
 C        -2.110702         1.905614         1.974790
 C        -0.688694         1.438522         2.014796
 C        -0.761908         1.243899         0.504143
 O        -0.128199         0.081817        -0.018501
 C        -0.091199         2.531897        -0.117108
 C        -1.100482         3.684830         0.360157
 C        -2.391623         2.917659         0.921171
 C        -2.328421         1.414056         0.575604
 H        -3.425056         1.048447         3.035811
 H         0.094259         1.930520         2.624940
 H        -0.704919         0.364286         2.580032
 H        -0.610678        -0.249720        -0.791364
 H         0.854520         2.735345         0.341159
 H         0.200105         2.356693        -1.210584
 H        -0.635466         4.403323         1.193646
 H        -1.459704         4.215502        -0.522468
 H        -3.215596         3.544757         1.315489
 H        -2.996091         0.854772        -0.050280
