19
Iteration:   884
 O        -3.214064         2.052586         3.037796
 C        -2.153063         1.957774         1.993442
 C        -0.672297         1.342675         2.095348
 C        -0.749602         1.210350         0.582252
 O        -0.067382         0.074330        -0.027261
 C        -0.167322         2.500363        -0.165394
 C        -1.098328         3.607081         0.369957
 C        -2.297933         2.973062         0.869171
 C        -2.301698         1.453960         0.495240
 H        -3.926941         1.443716         2.670127
 H         0.301005         1.712133         2.441563
 H        -0.912332         0.445538         2.600062
 H        -0.468316        -0.249070        -0.837097
 H         0.846956         2.682418         0.157816
 H        -0.356422         2.282400        -1.238690
 H        -0.653270         4.179074         1.176874
 H        -1.226047         4.464705        -0.282522
 H        -3.289860         3.359872         0.712683
 H        -3.099532         0.992141        -0.078629
