19
Iteration:   125
 O        -2.991295         1.859223         3.128953
 C        -2.204004         1.971061         1.905807
 C        -0.824442         1.489226         2.073925
 C        -0.692029         1.266843         0.578372
 O        -0.115515         0.064737         0.072110
 C        -0.084635         2.513310        -0.068326
 C        -1.151448         3.665128         0.206746
 C        -2.405531         2.905712         0.761196
 C        -2.267144         1.448296         0.425543
 H        -3.899606         2.066267         2.877367
 H        -0.109296         2.033288         2.607876
 H        -0.876976         0.562936         2.649152
 H        -0.699532        -0.656999         0.347480
 H         0.887728         2.678955         0.399295
 H         0.099082         2.360268        -1.101695
 H        -0.797165         4.510297         0.859274
 H        -1.491674         4.157524        -0.739374
 H        -3.400231         3.369396         0.737449
 H        -3.017118         0.898870        -0.087852
