19
Iteration:   959charge 0 multiplicity 1
 O        -3.160149         1.697675         2.908798
 C        -2.155548         1.944210         1.993189
 C        -0.664694         1.519773         2.139425
 C        -0.757610         1.212486         0.582528
 O        -0.419494         0.035791         0.045687
 C        -0.093532         2.558788        -0.201376
 C        -0.965888         3.676855         0.249679
 C        -2.356353         3.009194         0.830117
 C        -2.278742         1.507249         0.503991
 H        -2.854116         2.057102         3.726299
 H         0.042860         2.291906         2.483794
 H        -0.582047         0.671155         2.906571
 H         0.529188        -0.218026         0.216278
 H         0.826369         2.729901         0.295528
 H        -0.125225         2.475208        -1.249610
 H        -0.351558         4.184794         0.987049
 H        -1.137478         4.395902        -0.593866
 H        -3.308988         3.494949         1.025607
 H        -3.090782         0.908114         0.111844
