19
Iteration:  2583
 O        -3.063093         1.874329         3.016673
 C        -2.134639         1.862425         1.967481
 C        -0.661265         1.578542         2.036542
 C        -0.769283         1.291807         0.443182
 O        -0.385026        -0.074333         0.007444
 C        -0.205170         2.568580        -0.268090
 C        -1.018175         3.723399         0.410512
 C        -2.301820         2.963533         0.840798
 C        -2.277909         1.472858         0.553755
 H        -2.966240         1.094875         3.565525
 H         0.021689         2.376507         2.358164
 H        -0.225836         0.808820         2.716608
 H        -0.065683        -0.580953         0.786063
 H         0.874546         2.597174        -0.232152
 H        -0.389575         2.382493        -1.373150
 H        -0.585425         4.177286         1.278684
 H        -1.326292         4.543975        -0.233750
 H        -3.314431         3.307562         1.163127
 H        -3.019580         0.838880         0.126015
