19
Iteration:  4586charge 0 multiplicity 1
 O        -3.104362         1.832351         3.110577
 C        -2.218576         1.896902         1.952796
 C        -0.778515         1.468957         2.120372
 C        -0.642211         1.339664         0.557575
 O        -0.339713         0.014442        -0.030939
 C        -0.155332         2.534891        -0.174833
 C        -1.042278         3.756948         0.273152
 C        -2.307153         2.948214         0.842389
 C        -2.217891         1.457998         0.509226
 H        -3.414560         0.911939         3.055631
 H        -0.194628         2.147540         2.786820
 H        -0.650078         0.474513         2.587340
 H         0.583085        -0.253029         0.013433
 H         0.873853         2.724500         0.034714
 H        -0.328185         2.352481        -1.273354
 H        -0.567305         4.432102         1.060397
 H        -1.401963         4.230538        -0.633997
 H        -3.106975         3.559466         0.592828
 H        -2.929402         0.909742        -0.099811
