19
Iteration:  3649
 O        -3.031063         1.790618         3.146012
 C        -2.219964         1.930439         1.952828
 C        -0.822145         1.491742         2.097761
 C        -0.777964         1.262854         0.583223
 O        -0.227167         0.086938         0.027330
 C        -0.036559         2.492581        -0.079779
 C        -1.149786         3.622101         0.159115
 C        -2.339658         2.914676         0.805390
 C        -2.264229         1.478183         0.471723
 H        -2.863383         2.585228         3.624262
 H        -0.034831         2.045748         2.616078
 H        -0.862062         0.436814         2.584664
 H         0.089276         0.298975        -0.885748
 H         0.994619         2.742276         0.304575
 H         0.049543         2.499029        -1.124626
 H        -0.704763         4.459867         0.743539
 H        -1.552543         4.101073        -0.755701
 H        -3.246056         3.407009         0.659691
 H        -2.996588         0.939737        -0.052752
