19
Iteration:  1782
 O        -3.126353         2.076009         3.073811
 C        -2.189571         1.921442         2.034596
 C        -0.828032         1.268002         2.056321
 C        -0.707555         1.232616         0.534907
 O        -0.131036         0.073267        -0.046527
 C        -0.195526         2.558804        -0.100815
 C        -1.191867         3.696641         0.198662
 C        -2.202877         2.891619         0.911326
 C        -2.234583         1.469538         0.465114
 H        -3.352854         1.178534         3.483582
 H        -0.090777         1.622141         2.718430
 H        -1.079281         0.158756         2.320097
 H         0.314594        -0.371957         0.657331
 H         0.869028         2.823365         0.189689
 H        -0.167276         2.607975        -1.181551
 H        -0.817745         4.602719         0.711219
 H        -1.545879         4.011439        -0.829426
 H        -3.114563         3.490348         0.907079
 H        -2.873853         0.913391        -0.253015
