19
Iteration:  1973charge 0 multiplicity 1
 O        -2.947266         1.983743         3.067625
 C        -2.155185         1.996695         1.932760
 C        -0.753017         1.357695         2.006694
 C        -0.737740         1.221099         0.519958
 O        -0.275748        -0.035622         0.029414
 C        -0.083405         2.651306         0.003552
 C        -1.204046         3.745567         0.283129
 C        -2.354245         2.880176         0.776695
 C        -2.328125         1.438711         0.415227
 H        -3.030634         1.077987         3.320065
 H         0.000896         2.099068         2.343259
 H        -0.901557         0.438307         2.506572
 H         0.294211        -0.497245         0.718922
 H         0.917090         2.776757         0.353841
 H        -0.122060         2.482060        -1.095241
 H        -0.715914         4.318557         1.061572
 H        -1.535633         4.238107        -0.591250
 H        -3.298778         3.404510         0.916486
 H        -3.228370         0.881725         0.013506
