19
Iteration:  3559charge 0 multiplicity 1
 O        -3.038383         1.654238         3.037367
 C        -2.194057         2.014060         1.968845
 C        -0.792950         1.590179         2.043345
 C        -0.820969         1.244646         0.536927
 O        -0.177973         0.036517         0.157345
 C        -0.217853         2.489729        -0.224710
 C        -1.002974         3.645023         0.260948
 C        -2.334012         3.005616         0.853794
 C        -2.295382         1.495136         0.539229
 H        -3.242528         2.431742         3.611346
 H         0.096456         2.032493         2.456938
 H        -0.788059         0.566231         2.560171
 H        -0.060670         0.132331        -0.826110
 H         0.872828         2.536174        -0.055514
 H        -0.182022         2.323601        -1.242860
 H        -0.377442         4.252107         0.991893
 H        -1.254541         4.379833        -0.524412
 H        -3.357622         3.478471         0.720864
 H        -2.927190         0.870672        -0.175942
