19
Iteration:  2453
 O        -2.939764         1.804323         3.057885
 C        -2.157981         2.082223         1.934615
 C        -0.728512         1.554116         2.004943
 C        -0.760536         1.220353         0.514009
 O        -0.260606        -0.008177         0.101248
 C        -0.151961         2.516763        -0.172982
 C        -1.121231         3.639078         0.337587
 C        -2.366826         2.990540         0.846398
 C        -2.327102         1.490139         0.496983
 H        -2.598189         0.997538         3.484558
 H         0.132537         2.163365         2.409374
 H        -0.846862         0.530463         2.392262
 H        -0.783517        -0.402349        -0.582182
 H         0.854480         2.612861         0.255945
 H        -0.071156         2.390081        -1.270189
 H        -0.866847         4.275692         1.164668
 H        -1.280144         4.230435        -0.537656
 H        -3.305934         3.454179         0.712399
 H        -3.233779         0.973334         0.252465
