19
Iteration:  3297
 O        -3.014344         1.779953         3.032148
 C        -2.103061         1.907111         1.990617
 C        -0.697049         1.578602         2.082993
 C        -0.723211         1.256327         0.505934
 O        -0.205462         0.033426         0.080720
 C        -0.098764         2.416549        -0.150761
 C        -1.172627         3.643885         0.250980
 C        -2.370096         2.993230         0.832668
 C        -2.359703         1.494228         0.550762
 H        -3.850857         2.060240         2.679988
 H        -0.047904         2.443940         2.380715
 H        -0.533994         0.778323         2.793731
 H        -0.765937        -0.232742        -0.683724
 H         0.877816         2.793931         0.222239
 H        -0.072957         2.533649        -1.248246
 H        -0.562972         4.156771         0.962748
 H        -1.334111         4.290500        -0.584710
 H        -3.203470         3.552703         1.186105
 H        -3.264655         0.997043         0.096020
