19
Iteration:   731
 O        -3.203455         1.929418         3.002108
 C        -2.237924         1.922447         1.964407
 C        -0.753981         1.417535         2.082807
 C        -0.630020         1.219651         0.516478
 O        -0.298715         0.018525        -0.017500
 C        -0.104282         2.529189        -0.145858
 C        -0.954266         3.651236         0.400591
 C        -2.298783         2.938340         0.859332
 C        -2.239582         1.456953         0.559381
 H        -4.163863         1.999981         2.693060
 H        -0.042046         2.175236         2.538003
 H        -0.771565         0.540655         2.710286
 H         0.389246         0.157122        -0.695005
 H         0.960907         2.791584        -0.043240
 H        -0.287771         2.530109        -1.292937
 H        -0.637734         4.027350         1.360570
 H        -1.268544         4.419144        -0.310497
 H        -3.237477         3.583228         0.957164
 H        -2.860536         0.855969        -0.149378
