19
Iteration:  4478charge 0 multiplicity 1
 O        -3.133637         1.834865         2.989426
 C        -2.158660         1.919712         1.969044
 C        -0.691825         1.494009         2.135344
 C        -0.668488         1.251263         0.523097
 O        -0.292241        -0.044626         0.012175
 C        -0.241201         2.588731        -0.185923
 C        -1.041324         3.703750         0.352702
 C        -2.311397         2.982033         0.832320
 C        -2.271001         1.482640         0.532996
 H        -3.498944         0.978738         2.811925
 H         0.013490         2.190369         2.632397
 H        -0.805122         0.507739         2.719850
 H         0.643455         0.151149        -0.266268
 H         0.899077         2.733090         0.064189
 H        -0.326134         2.378733        -1.347809
 H        -0.522606         4.293684         1.222188
 H        -1.159697         4.455173        -0.437738
 H        -3.252007         3.487027         0.898052
 H        -3.155085         0.990581         0.125709
