19
Iteration:  3371
 O        -3.058096         1.785129         3.058674
 C        -2.187488         1.990861         1.981324
 C        -0.724813         1.527576         1.998524
 C        -0.785744         1.254709         0.539831
 O        -0.111475         0.027135         0.087669
 C        -0.201471         2.512216        -0.208441
 C        -1.033479         3.651580         0.328027
 C        -2.290863         2.968655         0.841310
 C        -2.413450         1.422112         0.587999
 H        -3.955909         2.280624         2.899348
 H         0.190918         2.130680         2.271273
 H        -0.664331         0.645144         2.554277
 H         0.329547         0.117200        -0.750933
 H         0.867526         2.298542        -0.068496
 H        -0.459192         2.402851        -1.275674
 H        -0.525702         4.341727         1.053326
 H        -1.430393         4.216112        -0.548479
 H        -3.221172         3.441613         1.047532
 H        -3.343632         1.067419         0.027189
