19
Iteration:  4244charge 0 multiplicity 1
 O        -3.074714         1.648657         2.947044
 C        -2.098147         2.048655         1.946128
 C        -0.705780         1.462673         2.185853
 C        -0.673606         1.278790         0.540819
 O        -0.336042         0.030473        -0.022309
 C        -0.119254         2.530912        -0.189776
 C        -1.067585         3.696173         0.382536
 C        -2.374539         2.986904         0.790984
 C        -2.276999         1.530291         0.526447
 H        -3.647279         2.366636         3.184171
 H        -0.084364         2.347721         2.626353
 H        -0.769524         0.523918         2.668061
 H         0.436090        -0.310830         0.404098
 H         0.919234         2.645042        -0.225998
 H        -0.621198         2.246526        -1.197294
 H        -0.718533         4.071941         1.296436
 H        -1.318589         4.397707        -0.401045
 H        -3.342443         3.519020         0.688374
 H        -3.067134         0.784583         0.320495
