19
Iteration:   917charge 0 multiplicity 1
 O        -3.097813         1.909740         3.060201
 C        -2.212778         1.896395         1.880276
 C        -0.773850         1.459246         2.077675
 C        -0.745796         1.296285         0.510645
 O        -0.255832        -0.033017         0.192580
 C        -0.118780         2.520535        -0.235233
 C        -1.013680         3.706273         0.377304
 C        -2.319823         2.991842         0.860558
 C        -2.317935         1.486815         0.390008
 H        -3.005819         0.946643         3.336656
 H         0.126516         1.971856         2.469636
 H        -0.850955         0.490612         2.525426
 H         0.271314         0.240083        -0.571143
 H         0.952532         2.627238        -0.057305
 H        -0.297362         2.269691        -1.299214
 H        -0.585501         4.009755         1.319038
 H        -1.343652         4.498281        -0.304811
 H        -3.225765         3.578245         0.876388
 H        -2.936459         0.932633        -0.304118
