19
Iteration:  3675charge 0 multiplicity 1
 O        -3.138438         1.713664         3.016266
 C        -2.161227         1.895035         1.959693
 C        -0.715545         1.463305         2.050848
 C        -0.778001         1.261744         0.526051
 O        -0.203600         0.011331         0.200838
 C        -0.149326         2.492540        -0.253509
 C        -1.131122         3.725644         0.196135
 C        -2.303515         3.022064         0.886179
 C        -2.296420         1.516936         0.557082
 H        -3.012419         2.464515         3.599285
 H         0.110278         2.103135         2.443536
 H        -0.553134         0.502440         2.427490
 H         0.480865        -0.000757        -0.518710
 H         0.871355         2.728488        -0.061763
 H        -0.153276         2.531802        -1.359448
 H        -0.511003         4.327303         0.815766
 H        -1.545751         4.417283        -0.545260
 H        -3.247340         3.658745         1.012582
 H        -3.131545         1.003677         0.013551
