19
Iteration:  3780
 O        -3.006561         1.861857         3.028635
 C        -2.092340         1.980714         1.944425
 C        -0.736815         1.309767         2.103263
 C        -0.717882         1.222376         0.607815
 O        -0.179291         0.070942        -0.084551
 C        -0.120327         2.563789        -0.015897
 C        -1.232385         3.691924         0.199841
 C        -2.382673         2.955252         0.773507
 C        -2.321286         1.468403         0.533639
 H        -3.141661         2.823726         3.355555
 H        -0.020482         1.877539         2.650733
 H        -1.152643         0.264228         2.413390
 H        -0.201903        -0.607370         0.649632
 H         0.828895         2.743303         0.614099
 H         0.153065         2.519386        -1.088656
 H        -0.843122         4.537746         0.899562
 H        -1.583783         4.198149        -0.749560
 H        -3.377651         3.492183         0.776559
 H        -3.015008         0.794175        -0.031090
