19
Iteration:  4675charge 0 multiplicity 1
 O        -3.026883         1.939806         3.030567
 C        -2.209960         1.944154         1.960022
 C        -0.825582         1.398166         2.011458
 C        -0.752087         1.309974         0.514287
 O        -0.216249         0.035040         0.068796
 C        -0.125941         2.598677        -0.122118
 C        -1.023580         3.679185         0.390772
 C        -2.406455         2.923745         0.799117
 C        -2.307017         1.393659         0.446531
 H        -2.883499         1.293568         3.733750
 H        -0.079566         2.071106         2.492889
 H        -0.719187         0.497593         2.706644
 H         0.079168         0.125702        -0.831613
 H         0.856052         2.495031         0.250067
 H        -0.105361         2.376500        -1.216435
 H        -0.599837         4.151596         1.356327
 H        -1.222294         4.377461        -0.414653
 H        -3.386355         3.310948         0.815398
 H        -2.825154         0.616742        -0.120934
