19
Iteration:  3514
 O        -3.169608         1.705798         2.909215
 C        -2.148047         1.911242         1.957188
 C        -0.632383         1.597275         2.044799
 C        -0.697285         1.369669         0.462050
 O        -0.353292        -0.090368         0.290686
 C        -0.266640         2.548850        -0.336641
 C        -1.089180         3.734533         0.336917
 C        -2.241827         2.980082         0.927420
 C        -2.188739         1.419145         0.526209
 H        -2.864392         2.124968         3.766596
 H        -0.059189         2.335963         2.609908
 H        -0.423229         0.649446         2.489759
 H         0.077655        -0.040992        -0.585918
 H         0.806294         2.627463        -0.304470
 H        -0.493324         2.535333        -1.338998
 H        -0.391099         4.212411         1.077973
 H        -1.421706         4.580160        -0.303972
 H        -3.309684         3.298413         0.766572
 H        -2.972307         0.965655        -0.023265
