19
Iteration:  4999
 O        -3.108697         1.865409         2.961291
 C        -2.180625         1.934883         1.953620
 C        -0.680425         1.415067         2.036013
 C        -0.711736         1.255654         0.484985
 O        -0.155008         0.021875         0.157528
 C        -0.146324         2.560011        -0.255534
 C        -1.046596         3.668263         0.434783
 C        -2.388960         2.990463         0.869890
 C        -2.379370         1.490284         0.535131
 H        -3.540270         0.942157         3.054480
 H         0.090934         2.210789         2.360374
 H        -0.520614         0.514530         2.563305
 H        -0.402984        -0.056862        -0.796044
 H         0.952417         2.837087        -0.086557
 H        -0.252266         2.490840        -1.281828
 H        -0.749999         4.087222         1.373295
 H        -1.137681         4.482835        -0.328933
 H        -3.335018         3.602302         0.862261
 H        -3.053231         0.796093         0.041339
