19
Iteration:  3478
 O        -3.148061         1.761976         3.015781
 C        -2.097255         1.982902         1.962786
 C        -0.724745         1.432841         2.107500
 C        -0.710525         1.247294         0.588490
 O        -0.117262         0.077926         0.056224
 C        -0.208327         2.493545        -0.180078
 C        -1.106296         3.705569         0.161590
 C        -2.299326         2.991553         0.837418
 C        -2.390629         1.450997         0.617190
 H        -3.084067         2.489059         3.722374
 H         0.003872         2.081057         2.632259
 H        -0.760923         0.402570         2.392133
 H        -0.320968         0.005602        -0.902410
 H         0.770292         2.600201         0.214712
 H        -0.211263         2.213937        -1.239471
 H        -0.540941         4.281437         0.918919
 H        -1.381614         4.362866        -0.700695
 H        -3.194889         3.550989         0.870745
 H        -3.165973         0.789649         0.167125
