19
Iteration:  4007charge 0 multiplicity 1
 O        -3.020277         1.951115         2.938107
 C        -2.129652         1.987065         1.943149
 C        -0.766122         1.270819         2.150882
 C        -0.758054         1.188599         0.585632
 O        -0.152370         0.026552        -0.100861
 C        -0.150190         2.585625         0.005619
 C        -1.149661         3.665911         0.327868
 C        -2.402351         2.945832         0.768057
 C        -2.328265         1.448219         0.544324
 H        -3.460592         2.749721         3.142329
 H         0.098628         1.792462         2.639516
 H        -1.071820         0.287526         2.673346
 H         0.557781         0.453120        -0.603204
 H         0.929672         2.695775         0.425017
 H         0.065610         2.466964        -1.039580
 H        -0.856824         4.323067         1.190303
 H        -1.557673         4.155727        -0.572428
 H        -3.338688         3.544952         0.966186
 H        -2.969684         0.654993         0.232363
