19
Iteration:  1072
 O        -3.042551         1.902151         3.045315
 C        -2.198426         1.916233         1.947293
 C        -0.780827         1.435366         2.076137
 C        -0.730315         1.247707         0.545413
 O        -0.184205         0.055793        -0.006050
 C        -0.145760         2.562087        -0.108124
 C        -1.039518         3.651221         0.354497
 C        -2.323580         2.915253         0.822543
 C        -2.259136         1.422046         0.491791
 H        -3.743458         2.521991         2.838352
 H         0.017893         2.238940         2.302839
 H        -0.635352         0.432810         2.474604
 H        -1.006789        -0.523147        -0.093094
 H         0.921559         2.620218         0.139721
 H        -0.359409         2.331704        -1.150688
 H        -0.701293         4.303405         1.204768
 H        -1.361566         4.483821        -0.312396
 H        -3.262328         3.470084         0.730278
 H        -3.077411         0.868294         0.048079
