19
Iteration:   476
 O        -3.077447         1.878025         3.002111
 C        -2.202327         1.983698         2.005869
 C        -0.866402         1.326269         1.941682
 C        -0.797378         1.241992         0.479894
 O        -0.022955         0.036680         0.208867
 C        -0.145896         2.523809        -0.053905
 C        -1.050339         3.631607         0.375673
 C        -2.314918         2.986061         0.791909
 C        -2.357782         1.554812         0.366818
 H        -3.337524         2.684628         3.542313
 H        -0.023198         1.593089         2.551149
 H        -1.107586         0.187887         2.084620
 H        -0.173258        -0.159257        -0.717030
 H         0.842826         2.632611         0.493295
 H         0.066446         2.365509        -1.149551
 H        -0.650490         4.186944         1.198393
 H        -1.364464         4.231609        -0.522703
 H        -3.227979         3.579565         0.657033
 H        -3.170451         0.960086        -0.039967
