19
Iteration:  1064charge 0 multiplicity 1
 O        -3.011986         1.925942         3.120552
 C        -2.255726         1.972121         1.947442
 C        -0.768190         1.402619         2.056300
 C        -0.681036         1.257269         0.523423
 O        -0.141261         0.032684        -0.037141
 C        -0.100309         2.541400        -0.083589
 C        -1.016238         3.713139         0.406972
 C        -2.426265         2.915596         0.768363
 C        -2.369079         1.372725         0.447225
 H        -3.803017         2.411137         2.994820
 H        -0.080004         2.108874         2.541051
 H        -0.605326         0.510831         2.575847
 H        -1.026502        -0.428240         0.093782
 H         0.965744         2.705178        -0.051683
 H        -0.241042         2.416317        -1.181178
 H        -0.498310         4.266487         1.197736
 H        -1.067737         4.315380        -0.482904
 H        -3.376241         3.441956         0.689048
 H        -2.982868         0.691985        -0.139155
