19
Iteration:  4116charge 0 multiplicity 1
 O        -3.234765         1.714630         3.011229
 C        -2.233893         1.856623         1.943296
 C        -0.709616         1.450325         2.117124
 C        -0.663472         1.333239         0.502308
 O        -0.269037         0.010685         0.147605
 C        -0.169066         2.559120        -0.229378
 C        -1.048121         3.723219         0.306195
 C        -2.261932         2.998923         0.920080
 C        -2.146334         1.490727         0.424403
 H        -3.076149         2.381663         3.764802
 H        -0.063339         2.208507         2.418009
 H        -0.396614         0.507218         2.646613
 H        -0.849770        -0.321430        -0.593373
 H         0.972516         2.663757        -0.100014
 H        -0.379593         2.418541        -1.265378
 H        -0.607033         4.520528         0.993093
 H        -1.347858         4.461836        -0.464862
 H        -3.206431         3.502189         0.929985
 H        -2.777206         0.972751        -0.310320
