19
Iteration:  2107
 O        -2.902908         1.895321         3.201013
 C        -2.254440         1.863306         1.961416
 C        -0.797767         1.455023         2.088931
 C        -0.727716         1.304582         0.505146
 O        -0.319770         0.049612        -0.023435
 C        -0.067067         2.422417        -0.070586
 C        -1.173099         3.672763         0.216729
 C        -2.338754         2.990147         0.859977
 C        -2.266871         1.473451         0.448283
 H        -3.870926         2.028528         3.131560
 H         0.017996         2.007015         2.677500
 H        -0.669979         0.439109         2.426114
 H         0.529468         0.284556        -0.457919
 H         0.922386         2.604058         0.413391
 H        -0.026570         2.409619        -1.180716
 H        -0.797150         4.598277         0.735986
 H        -1.355041         3.941076        -0.831276
 H        -3.379106         3.330764         0.730283
 H        -2.878568         0.932972        -0.232150
