19
Iteration:  1402
 O        -3.080192         2.004936         3.031371
 C        -2.238989         1.904517         1.953833
 C        -0.738360         1.488692         2.036074
 C        -0.765337         1.235881         0.494776
 O        -0.416135         0.042203        -0.038595
 C         0.026276         2.606685        -0.021243
 C        -1.117723         3.637674         0.312968
 C        -2.294576         2.847612         0.863569
 C        -2.254492         1.401659         0.449519
 H        -2.950442         1.235060         3.555553
 H         0.068373         2.234676         2.248820
 H        -0.593573         0.585704         2.601994
 H         0.455942        -0.208400         0.233398
 H         0.908759         2.559812         0.597857
 H         0.403057         2.800447        -1.057024
 H        -0.693385         4.403480         1.031008
 H        -1.302112         4.157955        -0.628898
 H        -3.350044         3.160563         0.727240
 H        -3.000147         0.727028         0.087767
