19
Iteration:  1500charge 0 multiplicity 1
 O        -3.082405         1.945076         2.951933
 C        -2.173097         1.905085         1.953665
 C        -0.747884         1.593435         2.071871
 C        -0.742595         1.255702         0.517289
 O        -0.319771        -0.000796         0.069385
 C        -0.156194         2.498503        -0.202868
 C        -0.995310         3.668645         0.509124
 C        -2.342516         2.887847         0.809876
 C        -2.233380         1.411228         0.462781
 H        -3.196427         1.180313         3.505838
 H        -0.177945         2.349217         2.656229
 H        -0.726308         0.630069         2.575490
 H         0.413546         0.098001        -0.523838
 H         0.896206         2.754419        -0.230001
 H        -0.440054         2.340696        -1.269414
 H        -0.492600         4.133005         1.390816
 H        -1.207555         4.480399        -0.172331
 H        -3.412833         3.214221         0.687399
 H        -3.111450         0.944199        -0.059739
