19
Iteration:  2742
 O        -3.043026         1.764003         3.128378
 C        -2.240007         1.956242         1.986013
 C        -0.756347         1.513748         2.080555
 C        -0.760288         1.224355         0.400399
 O        -0.151149         0.133902        -0.072075
 C        -0.152190         2.484722        -0.193259
 C        -0.952249         3.613754         0.274199
 C        -2.300415         2.982123         0.923366
 C        -2.432063         1.458067         0.645858
 H        -3.747693         2.411551         3.125398
 H         0.032319         2.317327         2.334448
 H        -0.484331         0.607732         2.682082
 H        -0.808189        -0.403155        -0.526547
 H         0.919864         2.530118         0.104942
 H        -0.119002         2.259535        -1.268932
 H        -0.399054         4.249180         0.977640
 H        -1.325656         4.372502        -0.403973
 H        -3.189675         3.545215         0.728054
 H        -3.221700         0.820921         0.306887
