19
Iteration:  2372charge 0 multiplicity 1
 O        -3.063696         1.901283         3.084165
 C        -2.116520         2.081107         2.053856
 C        -0.701183         1.442747         2.066209
 C        -0.774536         1.241454         0.518994
 O        -0.241248         0.056819        -0.074403
 C        -0.266740         2.483354        -0.220585
 C        -1.040174         3.652836         0.336306
 C        -2.330057         2.907136         0.744748
 C        -2.332384         1.463848         0.668525
 H        -3.238880         0.977909         3.142366
 H         0.224806         2.046822         2.229885
 H        -0.481902         0.494969         2.666314
 H         0.707403         0.187085        -0.261431
 H         0.857267         2.409974        -0.098832
 H        -0.414004         2.277544        -1.284480
 H        -0.727698         4.145033         1.266098
 H        -1.327886         4.397181        -0.443235
 H        -3.328442         3.381827         0.599545
 H        -3.236373         0.966709         0.375732
