19
Iteration:  3897charge 0 multiplicity 1
 O        -3.201990         1.627804         2.898564
 C        -2.197495         1.913292         1.956918
 C        -0.686798         1.694710         2.145695
 C        -0.769746         1.269498         0.461852
 O        -0.280952         0.083191         0.078782
 C        -0.216385         2.479011        -0.279017
 C        -0.894080         3.609066         0.363966
 C        -2.278746         3.004652         0.942310
 C        -2.265245         1.487828         0.494515
 H        -2.914815         2.158323         3.695395
 H        -0.149425         2.678785         2.400764
 H        -0.627610         0.802133         2.790781
 H        -0.056466        -0.493750         0.842846
 H         0.902217         2.625570        -0.257485
 H        -0.520152         2.281032        -1.310499
 H        -0.243501         4.014664         1.128500
 H        -1.189332         4.459093        -0.210496
 H        -3.331413         3.390814         0.850880
 H        -3.025748         1.079466        -0.249259
