19
Iteration:   995charge 0 multiplicity 1
 O        -3.189212         1.821610         3.020926
 C        -2.103091         1.995844         1.979952
 C        -0.756477         1.340901         2.120021
 C        -0.671053         1.254258         0.529377
 O        -0.284594         0.022249        -0.027865
 C        -0.174652         2.586151        -0.215550
 C        -1.007235         3.695672         0.253302
 C        -2.314898         2.972266         0.967070
 C        -2.248102         1.481734         0.544217
 H        -3.761845         2.567295         2.925342
 H         0.105896         1.929276         2.583327
 H        -0.889349         0.393553         2.564216
 H         0.239079        -0.579448         0.536114
 H         0.890087         2.805011        -0.005263
 H        -0.014476         2.431578        -1.285589
 H        -0.606933         4.530462         0.874793
 H        -1.369549         4.267725        -0.650480
 H        -3.360439         3.270792         0.816995
 H        -2.926809         0.834671        -0.025538
