19
Iteration:  1337
 O        -3.218086         2.011132         3.019040
 C        -2.235019         1.903706         1.971428
 C        -0.685902         1.291176         2.107412
 C        -0.750028         1.295172         0.553679
 O        -0.121230         0.058858         0.091364
 C        -0.254239         2.493276        -0.327443
 C        -0.978622         3.594998         0.273083
 C        -2.281132         3.004599         0.968354
 C        -2.309747         1.504276         0.516013
 H        -3.600032         1.079874         3.214925
 H         0.265694         1.894543         2.357219
 H        -0.785330         0.399141         2.597800
 H         0.515263         0.366761        -0.620342
 H         0.802578         2.534563        -0.179229
 H        -0.520139         2.244897        -1.395697
 H        -0.429271         3.992411         1.171692
 H        -1.332568         4.451625        -0.271062
 H        -3.054891         3.775671         0.979829
 H        -3.078677         0.977311        -0.003216
