19
Iteration:  1572charge 0 multiplicity 1
 O        -3.126718         1.970850         3.042240
 C        -2.179132         1.896603         2.054445
 C        -0.757832         1.303514         2.129162
 C        -0.704225         1.329361         0.593612
 O        -0.245161         0.149659        -0.091090
 C        -0.058283         2.483499        -0.018032
 C        -1.113938         3.598123         0.045776
 C        -2.291382         2.932585         0.889538
 C        -2.365848         1.545672         0.551476
 H        -3.387328         1.096238         3.223811
 H         0.049834         1.831315         2.622788
 H        -0.833076         0.215526         2.510580
 H         0.697513        -0.075641        -0.151776
 H         0.955205         2.645465         0.436627
 H         0.172204         2.241781        -1.050177
 H        -0.748363         4.498248         0.578429
 H        -1.493183         3.975771        -0.949574
 H        -3.263623         3.470027         0.975635
 H        -3.136249         0.990524        -0.002550
