19
Iteration:  2241charge 0 multiplicity 1
 O        -3.051465         1.876410         2.988049
 C        -2.087394         1.915722         1.944475
 C        -0.634569         1.519630         2.059160
 C        -0.732638         1.252702         0.497287
 O        -0.350757        -0.051228         0.194647
 C        -0.210798         2.610167        -0.398993
 C        -1.098599         3.673877         0.388894
 C        -2.274239         2.994374         0.940993
 C        -2.361576         1.438032         0.544770
 H        -3.424840         0.959112         3.179137
 H         0.052938         2.243452         2.539500
 H        -0.487034         0.449734         2.430082
 H         0.227387        -0.113554        -0.559360
 H         0.889009         2.783243        -0.279802
 H        -0.355524         2.537307        -1.475423
 H        -0.453380         4.268384         0.996458
 H        -1.525454         4.451399        -0.263569
 H        -3.216671         3.438405         1.163321
 H        -3.055812         0.804277        -0.001863
