19
Iteration:    49charge 0 multiplicity 1
 O        -3.138229         1.930947         3.078930
 C        -2.177311         1.963039         1.936448
 C        -0.780544         1.525680         2.083657
 C        -0.740872         1.287513         0.519628
 O        -0.089512         0.073511         0.183447
 C        -0.162856         2.505197        -0.258224
 C        -1.105241         3.694950         0.300645
 C        -2.311064         2.885728         0.756768
 C        -2.286522         1.389426         0.419412
 H        -3.431359         0.983763         2.958563
 H         0.093574         2.202728         2.654958
 H        -0.680568         0.471063         2.457680
 H        -0.218287        -0.510726         0.971881
 H         0.883486         2.684132        -0.061607
 H        -0.442225         2.310558        -1.253991
 H        -0.657297         4.110215         1.235092
 H        -1.384813         4.495492        -0.428948
 H        -3.300346         3.345346         0.569732
 H        -3.019796         0.706299        -0.038987
