19
Iteration:    17charge 0 multiplicity 1
 O        -2.997755         1.757768         3.065625
 C        -2.248539         2.016520         1.881330
 C        -0.859917         1.661901         2.095822
 C        -0.755045         1.248879         0.560039
 O         0.004969         0.063948         0.111615
 C        -0.159546         2.431543        -0.174273
 C        -1.097806         3.599125         0.299721
 C        -2.382955         2.952596         0.772412
 C        -2.350811         1.415139         0.413295
 H        -3.682358         2.452065         2.972532
 H        -0.187007         2.555971         2.632096
 H        -0.879585         0.731454         2.724419
 H        -0.043030        -0.579134         0.838225
 H         0.918745         2.570719         0.035164
 H        -0.116479         2.250982        -1.266245
 H        -0.627804         4.164304         1.144619
 H        -1.305648         4.426539        -0.415158
 H        -3.344055         3.480808         0.620958
 H        -3.161802         0.762047         0.056561
