19
Iteration:  3501charge 0 multiplicity 1
 O        -3.184653         1.755688         2.961329
 C        -2.146608         1.860482         1.993427
 C        -0.698442         1.508617         2.140026
 C        -0.647948         1.286175         0.528552
 O        -0.300942         0.063587         0.174248
 C        -0.202053         2.502998        -0.372741
 C        -1.087171         3.691409         0.318664
 C        -2.309163         2.955988         0.899238
 C        -2.182854         1.533867         0.555522
 H        -2.864106         2.176653         3.779997
 H        -0.034930         2.310666         2.533052
 H        -0.562270         0.558786         2.527319
 H        -0.148939        -0.292219        -0.703234
 H         0.810737         2.746799        -0.353134
 H        -0.591886         2.199816        -1.333463
 H        -0.562221         4.407742         0.998235
 H        -1.497464         4.224868        -0.582206
 H        -3.274427         3.385991         0.680786
 H        -2.796824         0.970592        -0.096946
