19
Iteration:   624charge 0 multiplicity 1
 O        -3.282222         1.965658         2.883807
 C        -2.170889         2.009056         1.996068
 C        -0.705214         1.425381         2.103809
 C        -0.734879         1.214401         0.480822
 O        -0.223063         0.018898        -0.051786
 C        -0.107582         2.508832        -0.079737
 C        -0.983290         3.545888         0.467834
 C        -2.339998         3.021974         0.830728
 C        -2.230420         1.443791         0.581878
 H        -3.130166         1.260372         3.578201
 H         0.166432         2.130474         2.390303
 H        -0.675408         0.558491         2.715076
 H        -0.429666        -0.110578        -1.011191
 H         0.893497         2.851586         0.129125
 H        -0.160811         2.670399        -1.139724
 H        -0.609844         4.131130         1.355977
 H        -1.089143         4.382279        -0.194137
 H        -3.348237         3.478411         0.642070
 H        -2.849884         0.741834         0.005341
