19
Iteration:  1770
 O        -3.034631         2.075985         3.076617
 C        -2.170512         1.948605         1.958371
 C        -0.825458         1.222876         2.076854
 C        -0.737709         1.291026         0.482204
 O        -0.130678         0.050621        -0.016672
 C        -0.073033         2.598662        -0.052607
 C        -1.143477         3.657487         0.227710
 C        -2.434818         2.949159         0.861701
 C        -2.307728         1.466244         0.449647
 H        -3.156982         1.159449         3.459294
 H         0.007291         1.618200         2.622343
 H        -0.998238         0.115550         2.381469
 H         0.488336        -0.326825         0.678176
 H         0.965761         2.710356         0.391881
 H         0.017758         2.243852        -1.077324
 H        -0.757286         4.492945         0.859226
 H        -1.642425         4.100203        -0.687563
 H        -3.469503         3.238887         0.804090
 H        -3.074234         0.907172        -0.079888
