19
Iteration:   308charge 0 multiplicity 1
 O        -3.170420         2.007053         2.928153
 C        -2.193475         1.872145         2.035220
 C        -0.799023         1.364662         2.222192
 C        -0.750391         1.229151         0.546440
 O        -0.132758         0.089235        -0.134388
 C        -0.063519         2.533314        -0.109738
 C        -1.071470         3.723011         0.284248
 C        -2.306501         2.903432         0.836320
 C        -2.256445         1.397860         0.592284
 H        -4.051074         2.182747         2.463358
 H         0.021880         2.004381         2.568541
 H        -0.713869         0.422558         2.770459
 H        -0.433741        -0.683451         0.363042
 H         0.952744         2.887431         0.140615
 H        -0.138405         2.358508        -1.209018
 H        -0.663444         4.105707         1.196199
 H        -1.279667         4.580306        -0.309729
 H        -3.222657         3.501462         0.762505
 H        -2.904620         0.697927         0.027681
