19
Iteration:  2452
 O        -2.939373         1.800030         3.052647
 C        -2.154422         2.075776         1.936872
 C        -0.729455         1.549327         1.994537
 C        -0.757952         1.224687         0.499587
 O        -0.261748        -0.008720         0.118707
 C        -0.148563         2.511242        -0.181676
 C        -1.123483         3.645966         0.342234
 C        -2.364829         2.992707         0.850200
 C        -2.324758         1.500346         0.504679
 H        -2.636831         1.013610         3.479051
 H         0.112585         2.166181         2.429001
 H        -0.857588         0.500230         2.408114
 H        -0.793739        -0.399579        -0.586390
 H         0.890843         2.640044         0.205596
 H        -0.067816         2.380665        -1.274066
 H        -0.879307         4.268849         1.161393
 H        -1.316638         4.244508        -0.521803
 H        -3.312062         3.440639         0.704651
 H        -3.254289         0.965719         0.262280
