19
Iteration:  2067charge 0 multiplicity 1
 O        -3.123952         1.736020         2.991317
 C        -2.112769         1.989149         1.986825
 C        -0.581765         1.455097         1.985248
 C        -0.775315         1.267327         0.481870
 O        -0.225050         0.006245         0.188464
 C        -0.216507         2.491391        -0.241946
 C        -1.069080         3.707590         0.369522
 C        -2.420787         3.024775         0.810346
 C        -2.256778         1.504517         0.587123
 H        -3.109449         2.642447         3.384981
 H         0.066389         2.130767         2.461236
 H        -0.604780         0.406974         2.413580
 H        -0.293120        -0.196109        -0.755192
 H         0.892499         2.419323        -0.077010
 H        -0.394453         2.339688        -1.312534
 H        -0.615942         4.221495         1.211432
 H        -1.400554         4.390594        -0.458303
 H        -3.382872         3.553906         0.791784
 H        -2.956422         0.807729         0.086151
