19
Iteration:  4562charge 0 multiplicity 1
 O        -3.057742         1.950354         3.056613
 C        -2.143698         1.911517         1.912453
 C        -0.724666         1.386676         2.094609
 C        -0.739756         1.333255         0.553983
 O        -0.376536         0.083145        -0.033570
 C        -0.029977         2.553032        -0.104422
 C        -1.143176         3.689103         0.336128
 C        -2.387480         2.856481         0.796332
 C        -2.237881         1.439203         0.435573
 H        -2.895338         1.020106         3.450557
 H        -0.032386         2.092312         2.584448
 H        -0.649746         0.466225         2.606346
 H         0.443018        -0.224233         0.355282
 H         0.841361         2.782339         0.400556
 H         0.100192         2.420991        -1.138756
 H        -0.867184         4.135580         1.242104
 H        -1.385183         4.423110        -0.438926
 H        -3.356326         3.410246         0.678645
 H        -2.957694         0.791505        -0.050355
