19
Iteration:  1237charge 0 multiplicity 1
 O        -3.177422         1.939250         2.996387
 C        -2.174938         1.949012         2.027692
 C        -0.729681         1.420738         2.136059
 C        -0.756988         1.253363         0.479262
 O        -0.121557         0.034146        -0.102076
 C        -0.086389         2.455484        -0.105861
 C        -1.081183         3.644681         0.245726
 C        -2.329835         3.049139         0.906608
 C        -2.335855         1.495457         0.584437
 H        -3.130101         1.183091         3.660763
 H        -0.030237         1.919472         2.814472
 H        -1.023930         0.432604         2.392078
 H        -0.616255        -0.789582        -0.001229
 H         0.866854         2.778619         0.314762
 H         0.105807         2.428095        -1.191135
 H        -0.447711         4.354250         0.838312
 H        -1.385114         4.246210        -0.635598
 H        -3.228832         3.635371         0.703336
 H        -2.965994         0.909085        -0.132750
