19
Iteration:   317
 O        -3.173413         2.026813         2.921100
 C        -2.127707         1.949512         1.944720
 C        -0.753057         1.367745         2.197701
 C        -0.742185         1.181374         0.611431
 O        -0.128296         0.105582        -0.107317
 C        -0.124605         2.546620        -0.129701
 C        -1.070495         3.655486         0.364245
 C        -2.320257         2.938648         0.906490
 C        -2.318226         1.410134         0.485258
 H        -3.990148         1.986393         2.324308
 H         0.127345         1.813236         2.648197
 H        -0.951895         0.457225         2.611313
 H         0.041499        -0.693966         0.401414
 H         0.923455         2.659724         0.143532
 H        -0.105019         2.368278        -1.222549
 H        -0.670292         4.188131         1.241091
 H        -1.441813         4.212294        -0.439508
 H        -3.249941         3.542141         0.991366
 H        -2.952197         0.641811         0.076377
