19
Iteration:   871
 O        -3.213016         2.038999         2.997507
 C        -2.218631         2.052607         2.059813
 C        -0.692931         1.301642         2.080052
 C        -0.688987         1.211448         0.476817
 O        -0.051273         0.037823        -0.076403
 C        -0.135767         2.443515        -0.103242
 C        -1.083189         3.731459         0.352523
 C        -2.361491         2.914468         0.851983
 C        -2.273354         1.470174         0.598717
 H        -3.912387         1.470031         2.712628
 H        -0.095912         1.992150         2.605922
 H        -0.563453         0.238624         2.447428
 H        -0.803320        -0.303084        -0.629547
 H         0.898565         2.552596         0.131855
 H        -0.152992         2.342433        -1.159639
 H        -0.608294         4.239793         1.147014
 H        -1.448026         4.302935        -0.497917
 H        -3.261332         3.531449         1.047307
 H        -2.941841         0.787322         0.023370
