19
Iteration:   859charge 0 multiplicity 1
 O        -3.194263         2.014062         2.988672
 C        -2.145344         1.879717         2.004239
 C        -0.786024         1.379824         2.113553
 C        -0.710472         1.253763         0.509808
 O        -0.132514         0.040141        -0.078718
 C        -0.112314         2.571998        -0.099014
 C        -1.043826         3.667014         0.310293
 C        -2.311034         2.975665         0.846971
 C        -2.255323         1.433889         0.623700
 H        -3.828519         1.288794         2.868626
 H         0.044610         1.913745         2.521947
 H        -0.789678         0.330510         2.582908
 H        -0.824531        -0.546542        -0.443643
 H         0.904023         2.664774         0.263110
 H        -0.082153         2.499874        -1.156550
 H        -0.693703         4.465126         0.931809
 H        -1.211030         4.220841        -0.627744
 H        -3.344031         3.392443         0.842248
 H        -3.144685         0.848095         0.307457
