19
Iteration:  1162charge 0 multiplicity 1
 O        -3.089018         1.914180         3.070404
 C        -2.254875         1.950649         1.913834
 C        -0.722117         1.469762         2.005769
 C        -0.797486         1.280983         0.476137
 O        -0.199564        -0.017859         0.055946
 C        -0.158725         2.549597        -0.132725
 C        -1.009012         3.693950         0.400406
 C        -2.347462         2.959417         0.795043
 C        -2.306844         1.423340         0.448493
 H        -2.984235         1.063261         3.457822
 H         0.120978         2.219513         2.255886
 H        -0.602065         0.555102         2.547950
 H        -0.173204        -0.572652         0.874097
 H         0.840641         2.410124         0.267038
 H        -0.017696         2.596343        -1.230366
 H        -0.483205         4.213772         1.215730
 H        -1.111710         4.424804        -0.394980
 H        -3.270305         3.546205         0.707909
 H        -3.128453         1.151287        -0.248496
