19
Iteration:  3813charge 0 multiplicity 1
 O        -3.199595         1.942102         3.081101
 C        -2.150073         1.945708         2.057772
 C        -0.701712         1.342266         2.151187
 C        -0.728090         1.222733         0.592124
 O        -0.283459         0.121145        -0.169051
 C        -0.042012         2.512215        -0.019558
 C        -1.191951         3.630060         0.157193
 C        -2.295456         2.841779         0.794513
 C        -2.269719         1.448248         0.538611
 H        -3.138281         2.907297         3.362968
 H        -0.004579         1.854392         2.721274
 H        -0.497123         0.338750         2.701263
 H         0.638045         0.343070        -0.394438
 H         0.867909         2.826114         0.628126
 H         0.318451         2.427485        -1.077682
 H        -0.721286         4.497962         0.733021
 H        -1.680385         4.072588        -0.754768
 H        -3.256741         3.450171         0.792487
 H        -2.840181         0.824248        -0.206007
