19
Iteration:  3221charge 0 multiplicity 1
 O        -2.957807         1.977004         3.059217
 C        -2.174920         1.947080         1.974995
 C        -0.740797         1.307049         1.956612
 C        -0.777417         1.250850         0.495791
 O        -0.123083         0.023583         0.069450
 C        -0.198376         2.491538        -0.073213
 C        -1.195779         3.694287         0.231588
 C        -2.359152         2.912216         0.849881
 C        -2.356631         1.409187         0.579059
 H        -3.395649         2.906752         3.195544
 H         0.046145         1.952986         2.478142
 H        -0.804786         0.329416         2.485793
 H         0.648368         0.262556        -0.441224
 H         0.710540         2.767682         0.512886
 H        -0.061329         2.464148        -1.201056
 H        -0.864930         4.279414         1.128739
 H        -1.427249         4.353027        -0.622621
 H        -3.317951         3.385922         0.741587
 H        -3.177907         1.010214        -0.146038
