19
Iteration:  4201charge 0 multiplicity 1
 O        -3.019612         1.966895         3.111835
 C        -2.255004         1.798483         1.993439
 C        -0.809294         1.358633         2.081807
 C        -0.753350         1.333332         0.531850
 O        -0.227700         0.069278        -0.008633
 C        -0.042186         2.559652        -0.125699
 C        -1.060989         3.630541         0.335137
 C        -2.365782         2.825102         0.927543
 C        -2.333862         1.504283         0.353239
 H        -3.774451         2.451556         2.890628
 H         0.099107         1.977245         2.490506
 H        -0.671574         0.327358         2.301330
 H         0.657817         0.384563        -0.227477
 H         0.929897         2.714702         0.267125
 H         0.055126         2.649284        -1.251203
 H        -0.632551         4.367284         1.003012
 H        -1.418840         4.110970        -0.581923
 H        -3.356943         3.315321         0.809757
 H        -3.066582         0.874968        -0.150081
