19
Iteration:  1046
 O        -2.928309         1.965787         3.209645
 C        -2.271042         1.947886         1.901101
 C        -0.879204         1.444216         2.077173
 C        -0.774141         1.196829         0.500282
 O        -0.116146         0.077783        -0.066373
 C        -0.107253         2.515180        -0.120124
 C        -1.080519         3.620523         0.381934
 C        -2.363060         2.924621         0.719148
 C        -2.275486         1.469734         0.444087
 H        -3.840160         2.178029         3.068204
 H        -0.095280         1.977004         2.599175
 H        -1.088622         0.363944         2.462632
 H        -0.301137        -0.799189         0.419835
 H         0.888858         2.562562         0.373729
 H        -0.002268         2.435966        -1.221427
 H        -0.792963         4.067885         1.340204
 H        -1.235931         4.548232        -0.195309
 H        -3.334772         3.412579         0.582288
 H        -3.044826         1.010423        -0.205366
