19
Iteration:  2429charge 0 multiplicity 1
 O        -3.072973         1.818650         3.031742
 C        -2.131874         1.865012         1.975169
 C        -0.617739         1.444161         2.041075
 C        -0.759178         1.330068         0.492604
 O        -0.320664        -0.043275         0.312042
 C        -0.263980         2.622871        -0.385333
 C        -1.044658         3.744251         0.262173
 C        -2.301434         3.000235         0.933546
 C        -2.293346         1.506464         0.489966
 H        -3.189219         0.843395         3.308292
 H         0.171062         2.147874         2.378941
 H        -0.412200         0.349075         2.277992
 H        -0.327444        -0.374021        -0.601195
 H         0.842260         2.664759        -0.236404
 H        -0.444506         2.484335        -1.464868
 H        -0.494927         4.243516         1.030435
 H        -1.265185         4.466908        -0.505204
 H        -3.217330         3.546688         1.177192
 H        -3.000469         0.946231        -0.199138
