19
Iteration:   101charge 0 multiplicity 1
 O        -3.226778         1.785673         2.963738
 C        -2.145435         1.976900         2.020708
 C        -0.731909         1.507386         2.173200
 C        -0.733184         1.276592         0.569669
 O        -0.108001         0.125139        -0.006505
 C        -0.083932         2.535373        -0.155226
 C        -1.088419         3.577748         0.139135
 C        -2.354765         2.929136         0.798057
 C        -2.256447         1.423268         0.670473
 H        -3.384253         2.691141         3.257179
 H        -0.074571         2.150863         2.501753
 H        -0.639038         0.634543         2.793950
 H        -0.766473        -0.604847        -0.076636
 H         0.869352         2.685677         0.339401
 H         0.023052         2.344299        -1.220204
 H        -0.714919         4.413350         0.740474
 H        -1.450178         4.024307        -0.786504
 H        -3.354778         3.474461         0.753120
 H        -2.996330         0.771001         0.151737
