19
Iteration:   932charge 0 multiplicity 1
 O        -3.103697         1.803594         2.991265
 C        -2.212101         1.989661         1.990903
 C        -0.773209         1.471661         1.986943
 C        -0.736636         1.260799         0.478705
 O        -0.305323        -0.037011         0.186946
 C        -0.168439         2.517087        -0.179539
 C        -1.018292         3.627318         0.388108
 C        -2.325357         2.998956         0.821748
 C        -2.244346         1.581259         0.445983
 H        -2.716265         1.252536         3.638955
 H        -0.196310         2.249840         2.530033
 H        -0.526783         0.498218         2.448011
 H         0.509173        -0.313137        -0.299419
 H         0.889963         2.730580         0.192840
 H        -0.314786         2.619367        -1.313183
 H        -0.462747         4.342895         1.067645
 H        -1.057190         4.359576        -0.430147
 H        -3.347913         3.368934         0.602744
 H        -3.082415         1.139832        -0.116682
