19
Iteration:  4334charge 0 multiplicity 1
 O        -3.107651         1.918706         3.050894
 C        -2.240143         1.976294         2.010680
 C        -0.776616         1.377338         2.136999
 C        -0.680628         1.359667         0.578603
 O        -0.279296         0.011097        -0.073094
 C        -0.127702         2.595911        -0.103806
 C        -1.079723         3.681644         0.307571
 C        -2.305801         2.919211         0.719647
 C        -2.277344         1.389858         0.511904
 H        -2.770887         1.224592         3.565118
 H        -0.090965         1.928986         2.883159
 H        -0.867466         0.350382         2.479124
 H         0.618433         0.060359        -0.470361
 H         0.847690         2.945534         0.172871
 H        -0.346791         2.407171        -1.128435
 H        -0.643324         4.069676         1.244032
 H        -1.216620         4.355218        -0.482522
 H        -3.279725         3.399569         0.621908
 H        -2.791883         0.665788        -0.108676
