19
Iteration:  4288
 O        -3.215497         1.687919         2.925515
 C        -2.201641         1.824575         1.995022
 C        -0.702429         1.537778         2.051013
 C        -0.737973         1.237765         0.456480
 O        -0.269078        -0.024371         0.119052
 C        -0.117104         2.571932        -0.272563
 C        -1.072756         3.710225         0.339350
 C        -2.245669         3.029946         0.905744
 C        -2.292347         1.590237         0.529775
 H        -2.859997         1.731593         3.828505
 H         0.031530         2.376104         2.331681
 H        -0.542098         0.697096         2.665967
 H         0.583614        -0.207785         0.483605
 H         0.864857         2.759322        -0.038246
 H        -0.330132         2.521386        -1.385529
 H        -0.590193         4.406227         0.958471
 H        -1.341197         4.122590        -0.609131
 H        -3.015835         3.626202         1.343784
 H        -3.198957         1.187482         0.005491
