19
Iteration:  3573charge 0 multiplicity 1
 O        -3.109660         1.781351         3.107159
 C        -2.225747         1.949645         1.997176
 C        -0.764473         1.372477         2.110435
 C        -0.697103         1.311523         0.545785
 O        -0.181983         0.098650         0.072856
 C        -0.128832         2.482890        -0.227332
 C        -1.073017         3.700930         0.227371
 C        -2.281428         2.939663         0.834888
 C        -2.289527         1.451163         0.503827
 H        -3.221992         2.658076         3.574192
 H        -0.220745         2.207808         2.524601
 H        -0.787656         0.403744         2.723592
 H        -0.355030        -0.034665        -0.858382
 H         0.939156         2.682981         0.020034
 H        -0.411447         2.320109        -1.276540
 H        -0.620195         4.420529         0.900844
 H        -1.443623         4.174097        -0.679529
 H        -3.177790         3.497931         0.759650
 H        -3.086610         0.959061        -0.102895
