19
Iteration:  4037charge 0 multiplicity 1
 O        -3.192029         1.816330         3.052082
 C        -2.231020         1.833720         1.998447
 C        -0.801848         1.395418         2.096192
 C        -0.700609         1.339075         0.498381
 O        -0.249764         0.030524         0.103922
 C        -0.128075         2.598984        -0.248893
 C        -1.014480         3.707427         0.283586
 C        -2.270820         2.903862         0.908199
 C        -2.181311         1.485710         0.482269
 H        -3.430183         2.726054         3.457968
 H        -0.081347         1.907510         2.691296
 H        -0.845534         0.407468         2.332621
 H         0.261775         0.246287        -0.716007
 H         0.896119         2.639976        -0.014941
 H        -0.187683         2.370793        -1.330644
 H        -0.503663         4.385874         0.984758
 H        -1.595449         4.244452        -0.490060
 H        -3.277035         3.415389         0.836752
 H        -2.812055         0.805853        -0.095232
