19
Iteration:  4605
 O        -3.148123         1.798020         2.938838
 C        -2.127128         1.969549         2.034307
 C        -0.691872         1.469374         2.091509
 C        -0.782114         1.216836         0.509389
 O        -0.248262         0.029251         0.062026
 C        -0.175522         2.505900        -0.243597
 C        -1.069318         3.671029         0.293327
 C        -2.299932         3.007361         0.938444
 C        -2.288749         1.564552         0.565368
 H        -3.577821         0.892374         2.788344
 H         0.211465         1.985543         2.448851
 H        -0.605192         0.602417         2.673208
 H         0.669284         0.267194        -0.003050
 H         0.869066         2.666457        -0.070571
 H        -0.299542         2.367315        -1.254822
 H        -0.486090         4.108496         0.995702
 H        -1.392323         4.346707        -0.521713
 H        -3.376857         3.496595         1.065687
 H        -3.039060         1.054334        -0.035011
