19
Iteration:  2362charge 0 multiplicity 1
 O        -2.972489         1.971090         3.097953
 C        -2.162716         1.985653         2.007689
 C        -0.709272         1.427402         2.027776
 C        -0.774219         1.241335         0.498919
 O        -0.278583         0.044182        -0.059864
 C        -0.177176         2.472926        -0.169762
 C        -1.075244         3.678469         0.314035
 C        -2.413012         2.932572         0.823105
 C        -2.304370         1.407820         0.582720
 H        -3.084417         1.092373         3.401079
 H        -0.008485         2.128983         2.527192
 H        -0.755382         0.384511         2.541011
 H         0.706699         0.161992         0.020318
 H         0.872489         2.735539         0.030606
 H        -0.445593         2.435086        -1.211906
 H        -0.759595         4.309485         1.139020
 H        -1.227988         4.354361        -0.545990
 H        -3.425527         3.420418         0.841886
 H        -3.044643         0.859882        -0.005057
