19
Iteration:  1944
 O        -3.028829         2.102296         3.104456
 C        -2.181778         1.855651         2.010425
 C        -0.785376         1.317660         2.123081
 C        -0.697765         1.274908         0.540938
 O        -0.318756         0.096967        -0.086389
 C        -0.060237         2.613054        -0.062961
 C        -1.123444         3.684875         0.199545
 C        -2.380546         2.840985         0.840381
 C        -2.259984         1.354924         0.483889
 H        -3.631504         1.384179         3.226112
 H         0.015179         2.026259         2.540239
 H        -0.768699         0.253502         2.560336
 H         0.663240         0.163546        -0.052439
 H         1.007478         2.666742         0.314632
 H        -0.017390         2.394253        -1.139344
 H        -0.526135         4.351333         0.860504
 H        -1.512185         4.236466        -0.715081
 H        -3.400053         3.239435         0.901959
 H        -2.982301         0.678686        -0.046473
