19
Iteration:  2515charge 0 multiplicity 1
 O        -3.071114         2.171844         2.987669
 C        -2.019157         1.918001         2.074898
 C        -0.672592         1.147250         2.041432
 C        -0.753118         1.192690         0.528976
 O        -0.136692         0.050250        -0.070375
 C        -0.190692         2.557891        -0.108352
 C        -1.319707         3.738608         0.221776
 C        -2.340082         2.927478         0.930611
 C        -2.238257         1.500433         0.597829
 H        -3.327743         1.296498         3.291380
 H         0.245058         1.409915         2.495921
 H        -0.810821         0.065070         2.327920
 H        -0.805550        -0.553528        -0.363127
 H         0.846413         2.694895         0.256752
 H        -0.048299         2.568620        -1.181786
 H        -0.904730         4.543777         0.847233
 H        -1.608985         4.204722        -0.751348
 H        -3.289775         3.367907         1.101196
 H        -3.136706         0.953969         0.216188
