19
Iteration:   255charge 0 multiplicity 1
 O        -3.089325         1.671355         2.976977
 C        -2.227830         1.905293         1.852356
 C        -0.750165         1.507709         2.071698
 C        -0.738117         1.237051         0.511035
 O        -0.147566        -0.028097         0.253620
 C        -0.132346         2.534342        -0.096047
 C        -1.011261         3.744341         0.309692
 C        -2.290677         3.052858         0.748662
 C        -2.391814         1.509102         0.445960
 H        -3.068605         2.588843         3.424130
 H         0.032947         2.107095         2.601141
 H        -0.893925         0.415488         2.470126
 H        -0.872685        -0.513175        -0.164245
 H         0.828472         2.772562         0.419896
 H         0.073009         2.619054        -1.174585
 H        -0.625229         4.519696         0.973742
 H        -1.241851         4.389923        -0.572762
 H        -3.192979         3.644188         0.610424
 H        -3.316082         1.138762        -0.032164
