19
Iteration:  1098
 O        -3.212055         1.762191         2.896514
 C        -2.096743         1.942984         2.052667
 C        -0.644492         1.435402         2.197319
 C        -0.723596         1.319318         0.476455
 O        -0.204866         0.016935         0.063371
 C        -0.140211         2.522023        -0.257579
 C        -1.020785         3.670628         0.251623
 C        -2.343849         3.002638         0.983206
 C        -2.279449         1.484764         0.542602
 H        -3.571962         2.645657         3.111402
 H         0.086031         2.103817         2.587602
 H        -0.490130         0.394040         2.432960
 H        -1.075231        -0.425435        -0.172035
 H         0.900580         2.562565         0.044695
 H        -0.326527         2.297919        -1.327307
 H        -0.547791         4.433569         0.877221
 H        -1.499576         4.256937        -0.509879
 H        -3.270594         3.587410         1.039960
 H        -3.116460         1.015064        -0.033255
