19
Iteration:  4531
 O        -3.122622         2.034008         2.980867
 C        -2.171290         1.929435         1.991761
 C        -0.760082         1.293472         2.026164
 C        -0.753637         1.225173         0.481747
 O        -0.157989        -0.054855        -0.087871
 C        -0.073946         2.599247        -0.068015
 C        -1.180592         3.725391         0.355266
 C        -2.344428         2.943965         0.910042
 C        -2.326621         1.448555         0.525912
 H        -2.940798         1.240655         3.439921
 H         0.030662         1.960948         2.473251
 H        -0.693544         0.391005         2.703051
 H         0.736851         0.210549         0.260675
 H         1.024292         2.634025         0.155959
 H        -0.045384         2.460468        -1.267187
 H        -0.912987         4.543412         1.199070
 H        -1.487634         4.346160        -0.513037
 H        -3.304889         3.471989         0.899186
 H        -3.174630         0.969612         0.041278
