19
Iteration:  1865charge 0 multiplicity 1
 O        -3.041985         1.829285         3.078589
 C        -2.208442         1.877137         1.899290
 C        -0.765060         1.485367         1.966066
 C        -0.697926         1.319003         0.511749
 O        -0.290236         0.031415         0.281605
 C        -0.125192         2.526853        -0.293007
 C        -1.073550         3.714647         0.383419
 C        -2.298036         2.929082         0.890042
 C        -2.253037         1.519403         0.342077
 H        -3.079891         0.921229         3.278087
 H        -0.203760         2.328222         2.539360
 H        -0.553231         0.647233         2.560910
 H        -1.044635        -0.235579        -0.322868
 H         0.962952         2.509636        -0.176193
 H        -0.369526         2.419202        -1.384030
 H        -0.483277         4.104159         1.247048
 H        -1.334926         4.594322        -0.196835
 H        -3.231309         3.504191         0.922253
 H        -2.867581         0.858743        -0.256579
