19
Iteration:  2213
 O        -3.010274         1.760060         3.053866
 C        -2.121026         2.041141         1.952359
 C        -0.669794         1.584252         2.005025
 C        -0.800920         1.234839         0.510811
 O        -0.231480        -0.021037         0.197780
 C        -0.256740         2.462718        -0.283648
 C        -1.017092         3.686851         0.463925
 C        -2.388956         3.012049         0.787835
 C        -2.338854         1.529046         0.447711
 H        -2.604076         1.086302         3.615477
 H         0.111782         2.197964         2.435260
 H        -0.577539         0.589697         2.412990
 H        -0.688145        -0.383944        -0.596241
 H         0.826906         2.456887        -0.329005
 H        -0.553429         2.462946        -1.370778
 H        -0.522718         4.107841         1.394707
 H        -1.071173         4.531802        -0.276754
 H        -3.466953         3.295436         0.668498
 H        -3.044622         1.100050        -0.217103
