19
Iteration:  3729
 O        -3.187034         1.735337         2.996117
 C        -2.183633         1.945259         2.040978
 C        -0.715674         1.598301         2.199458
 C        -0.703183         1.295568         0.510631
 O        -0.179625         0.044416         0.098848
 C        -0.211680         2.498018        -0.328053
 C        -0.992846         3.636577         0.309298
 C        -2.327306         2.896369         0.859581
 C        -2.250342         1.480486         0.507918
 H        -3.174861         2.449732         3.634078
 H        -0.092240         2.518455         2.445712
 H        -0.501200         0.635473         2.575594
 H        -0.665271        -0.218090        -0.721313
 H         0.831569         2.704137        -0.287386
 H        -0.463209         2.384319        -1.381892
 H        -0.266634         3.982059         1.007926
 H        -1.354451         4.460119        -0.317576
 H        -3.354467         3.413066         0.683244
 H        -3.053656         0.856187         0.014304
