19
Iteration:  4712charge 0 multiplicity 1
 O        -3.069495         2.040227         3.011367
 C        -2.139686         1.925388         1.980849
 C        -0.805838         1.249036         2.063015
 C        -0.755637         1.232538         0.492902
 O        -0.074792         0.039126         0.008097
 C        -0.109333         2.552466        -0.002197
 C        -1.143291         3.693732         0.248531
 C        -2.404150         2.939859         0.931864
 C        -2.330678         1.496263         0.487279
 H        -3.194284         1.065750         3.282878
 H        -0.007796         1.863840         2.491862
 H        -0.856280         0.259556         2.325522
 H        -0.430883        -0.145538        -0.870251
 H         0.845762         2.898921         0.446024
 H         0.080142         2.631184        -1.077932
 H        -0.637973         4.586673         0.657294
 H        -1.486413         4.107180        -0.720843
 H        -3.374163         3.495297         1.129578
 H        -2.940434         0.780548        -0.033578
