19
Iteration:  3249charge 0 multiplicity 1
 O        -2.928262         1.951102         3.073611
 C        -2.114757         1.979811         2.023168
 C        -0.777593         1.222161         2.107144
 C        -0.742154         1.258446         0.583383
 O        -0.174347        -0.008857         0.046958
 C        -0.159760         2.587745        -0.105050
 C        -1.209096         3.659061         0.165528
 C        -2.374390         2.950189         0.831228
 C        -2.302463         1.505381         0.435046
 H        -3.810079         2.380572         3.054659
 H        -0.066342         1.692026         2.776082
 H        -1.032027         0.242573         2.507623
 H         0.396705         0.282435        -0.699384
 H         0.800135         2.947224         0.254347
 H        -0.080198         2.478891        -1.201959
 H        -1.015790         4.451505         0.898281
 H        -1.599896         4.134125        -0.765684
 H        -3.347063         3.501328         0.798904
 H        -3.009430         0.733156         0.330803
