19
Iteration:  3068
 O        -3.117045         1.937486         2.932882
 C        -2.079555         1.992901         1.895694
 C        -0.573060         1.351458         2.015435
 C        -0.712317         1.174297         0.507684
 O        -0.161244        -0.044993         0.029045
 C        -0.247997         2.554794        -0.058424
 C        -1.201706         3.712431         0.350046
 C        -2.454602         3.002770         0.872082
 C        -2.275569         1.402047         0.614131
 H        -3.043449         2.813570         3.470578
 H         0.329233         1.889034         2.300750
 H        -0.621738         0.407198         2.518586
 H        -0.075127        -0.019468        -0.945695
 H         0.777481         2.759128         0.310933
 H        -0.156219         2.673588        -1.108258
 H        -0.915456         4.436853         1.149625
 H        -1.375907         4.336425        -0.540326
 H        -3.506812         3.352306         0.930861
 H        -3.000870         0.652425         0.523466
