19
Iteration:  1696charge 0 multiplicity 1
 O        -3.230997         1.906701         2.859436
 C        -2.142489         1.893327         2.037310
 C        -0.676855         1.430600         2.149419
 C        -0.739658         1.250050         0.573935
 O        -0.312647         0.058963         0.118638
 C        -0.178123         2.519387        -0.329984
 C        -0.998353         3.731004         0.295123
 C        -2.238759         2.939473         0.938647
 C        -2.272585         1.454567         0.572479
 H        -3.401432         1.053379         3.189029
 H         0.089470         2.043192         2.610746
 H        -0.532526         0.385188         2.555861
 H         0.563715         0.165062        -0.263264
 H         0.918436         2.683381        -0.258938
 H        -0.505485         2.629310        -1.351781
 H        -0.562981         4.336093         1.078076
 H        -1.326267         4.336146        -0.536208
 H        -3.219469         3.359041         0.824053
 H        -2.951053         0.818587         0.026662
