19
Iteration:  1155
 O        -3.091680         1.832169         3.044133
 C        -2.183771         1.974120         1.892606
 C        -0.773210         1.493712         2.012984
 C        -0.686565         1.270822         0.467003
 O        -0.247546         0.051040         0.066177
 C        -0.167102         2.461431        -0.141692
 C        -0.977424         3.671843         0.398142
 C        -2.352095         3.012449         0.781527
 C        -2.354808         1.451392         0.470968
 H        -2.869301         1.147041         3.689141
 H        -0.152607         2.227201         2.395115
 H        -0.634030         0.623243         2.735709
 H        -0.310616        -0.513678         0.828589
 H         0.890402         2.688853         0.203515
 H        -0.000230         2.373454        -1.222653
 H        -0.486901         4.226189         1.192585
 H        -1.323027         4.329925        -0.413096
 H        -3.228565         3.677277         0.763728
 H        -3.100525         0.940228        -0.162560
