19
Iteration:  1844charge 0 multiplicity 1
 O        -3.037519         1.793791         3.019236
 C        -2.257888         1.956678         1.955031
 C        -0.689072         1.638123         2.082013
 C        -0.770270         1.243051         0.452453
 O        -0.226307        -0.072932         0.111911
 C        -0.161407         2.570386        -0.214567
 C        -1.005282         3.664598         0.416024
 C        -2.341958         2.990899         0.794990
 C        -2.294439         1.486624         0.494428
 H        -3.330309         0.856294         3.277496
 H         0.084298         2.396750         2.479721
 H        -0.544452         0.779569         2.705806
 H        -1.033886        -0.554468         0.035753
 H         0.899782         2.855321        -0.086831
 H        -0.321391         2.483504        -1.305667
 H        -0.603423         4.140578         1.350138
 H        -0.937856         4.473988        -0.329654
 H        -3.344074         3.337309         0.545069
 H        -2.978971         0.970842        -0.170209
