19
Iteration:  4702
 O        -3.054225         2.015898         2.995570
 C        -2.157929         1.927690         1.938280
 C        -0.751459         1.283171         1.965242
 C        -0.729160         1.221480         0.480394
 O        -0.078782         0.031527         0.045049
 C        -0.132056         2.581673         0.006743
 C        -1.173083         3.680340         0.317998
 C        -2.357226         2.968846         0.910527
 C        -2.374237         1.501901         0.454423
 H        -3.166986         1.270332         3.624695
 H         0.109375         1.813710         2.417564
 H        -0.869779         0.462272         2.530960
 H        -0.315223        -0.185912        -0.848055
 H         0.801434         2.543270         0.629267
 H         0.145871         2.376294        -1.011551
 H        -0.858900         4.439033         1.007920
 H        -1.548847         4.100654        -0.633931
 H        -3.385309         3.438387         0.852660
 H        -3.253440         0.888726         0.258063
