19
Iteration:   461
 O        -3.106056         1.848671         2.969098
 C        -2.255787         1.966900         1.834259
 C        -0.934832         1.268117         2.096733
 C        -0.742390         1.226443         0.499502
 O        -0.017767         0.095376         0.169476
 C        -0.113249         2.464785        -0.128525
 C        -1.027367         3.683850         0.317484
 C        -2.310369         3.036162         0.863153
 C        -2.406800         1.490996         0.499195
 H        -2.809956         2.618029         3.453602
 H        -0.135692         1.835833         2.626588
 H        -1.140420         0.348085         2.548719
 H         0.192482         0.011446        -0.783660
 H         0.967176         2.590963         0.151292
 H        -0.096883         2.406492        -1.232299
 H        -0.425008         4.188939         1.155515
 H        -1.137647         4.425093        -0.485405
 H        -3.262031         3.558323         1.004717
 H        -3.261587         1.136359        -0.072372
