19
Iteration:  1692charge 0 multiplicity 1
 O        -3.216804         1.881282         2.840633
 C        -2.128189         1.921057         2.004911
 C        -0.683670         1.419073         2.138017
 C        -0.748872         1.236437         0.559847
 O        -0.287898         0.068424         0.137054
 C        -0.200113         2.501535        -0.328789
 C        -0.997809         3.758505         0.310138
 C        -2.218654         2.959581         0.935846
 C        -2.289429         1.472777         0.621138
 H        -3.544365         0.960243         3.150262
 H         0.129378         2.055472         2.481446
 H        -0.642301         0.414496         2.618142
 H         0.615231         0.138332        -0.224749
 H         0.933245         2.464364        -0.318674
 H        -0.582447         2.446008        -1.372877
 H        -0.590598         4.346118         1.157317
 H        -1.444860         4.403919        -0.507725
 H        -3.231583         3.372326         0.836503
 H        -2.950152         0.858965         0.010941
