19
Iteration:   593
 O        -3.069787         1.919251         3.041548
 C        -2.238137         1.816929         1.911124
 C        -0.844114         1.339803         2.109036
 C        -0.798165         1.249439         0.479586
 O        -0.191831         0.057868         0.196480
 C        -0.149466         2.517119        -0.205101
 C        -0.930784         3.690683         0.426571
 C        -2.301769         3.018762         0.802908
 C        -2.313719         1.575978         0.354361
 H        -3.547678         1.084654         3.036927
 H        -0.188831         2.091188         2.625490
 H        -0.751901         0.351191         2.631905
 H         0.068273        -0.173892        -0.693250
 H         0.938928         2.695028        -0.015700
 H        -0.362242         2.626105        -1.243301
 H        -0.456856         3.970014         1.406555
 H        -1.059968         4.479608        -0.314425
 H        -3.194524         3.685726         0.904174
 H        -2.925157         0.933455        -0.319228
