19
Iteration:  1815
 O        -3.183839         1.910441         2.923450
 C        -2.139971         1.951454         2.027099
 C        -0.661144         1.488608         2.135396
 C        -0.729834         1.271662         0.535281
 O        -0.192494         0.132644        -0.084406
 C        -0.174465         2.469599        -0.167515
 C        -1.055509         3.600611         0.292038
 C        -2.305984         2.950836         0.872103
 C        -2.309493         1.492902         0.607433
 H        -3.481736         0.982058         3.183235
 H         0.076242         2.006643         2.695020
 H        -0.674232         0.386977         2.537023
 H        -0.479646        -0.572737         0.542513
 H         0.920308         2.683439        -0.008512
 H        -0.413831         2.351169        -1.233051
 H        -0.595130         4.303031         1.007601
 H        -1.197146         4.070237        -0.723060
 H        -3.186703         3.607798         1.028413
 H        -3.007456         0.675258         0.278492
