19
Iteration:   772charge 0 multiplicity 1
 O        -3.214814         1.794517         2.914788
 C        -2.204663         1.955033         1.886201
 C        -0.728867         1.381240         2.117190
 C        -0.697951         1.290795         0.600617
 O        -0.274693         0.080199         0.025989
 C        -0.178057         2.479015        -0.259270
 C        -1.001005         3.648445         0.457630
 C        -2.249685         2.999226         0.869922
 C        -2.273639         1.489556         0.522292
 H        -3.458021         2.636599         3.282171
 H         0.024462         2.030053         2.488230
 H        -0.666504         0.377560         2.597061
 H         0.647294        -0.176354         0.293441
 H         0.877196         2.646949        -0.187375
 H        -0.563881         2.266441        -1.216890
 H        -0.339006         4.171416         1.112276
 H        -0.987890         4.406640        -0.388780
 H        -3.174606         3.644458         0.960271
 H        -3.108739         0.952523         0.030464
