19
Iteration:  2663charge 0 multiplicity 1
 O        -2.972325         1.914502         3.169490
 C        -2.205617         1.959697         2.031563
 C        -0.703351         1.477490         2.027602
 C        -0.749774         1.184038         0.508585
 O        -0.302227         0.053066        -0.092144
 C        -0.099118         2.474555        -0.040888
 C        -1.096969         3.607549         0.244863
 C        -2.352864         2.990063         0.896151
 C        -2.326600         1.510730         0.480771
 H        -3.784912         1.524317         2.883270
 H         0.148788         2.224738         2.331295
 H        -0.515440         0.499283         2.489094
 H         0.215154         0.409102        -0.820373
 H         0.923936         2.495585         0.386411
 H        -0.051139         2.260011        -1.150414
 H        -0.795976         4.358471         0.989481
 H        -1.446678         4.047283        -0.678860
 H        -3.370201         3.293579         0.856469
 H        -3.097012         0.837011         0.064062
