19
Iteration:  2516charge 0 multiplicity 1
 O        -3.065455         2.167805         2.986914
 C        -2.028949         1.920809         2.063900
 C        -0.669553         1.143817         2.045204
 C        -0.758025         1.190430         0.534536
 O        -0.128673         0.047217        -0.068877
 C        -0.192540         2.557825        -0.102498
 C        -1.313981         3.750603         0.216611
 C        -2.338864         2.927146         0.925615
 C        -2.246325         1.504100         0.600421
 H        -3.327036         1.257569         3.289105
 H         0.279925         1.424437         2.478193
 H        -0.821185         0.040834         2.318242
 H        -0.835188        -0.538115        -0.339577
 H         0.839598         2.699040         0.246599
 H        -0.074546         2.580077        -1.184536
 H        -0.880649         4.517632         0.835770
 H        -1.632945         4.200603        -0.740711
 H        -3.284510         3.353855         1.103299
 H        -3.147385         0.980660         0.262441
