19
Iteration:  4002
 O        -3.020271         1.942374         2.966579
 C        -2.144605         2.022613         1.927457
 C        -0.814525         1.329878         2.136081
 C        -0.757626         1.171513         0.575735
 O        -0.123980         0.020818        -0.140167
 C        -0.141814         2.562730         0.029636
 C        -1.144738         3.657860         0.320495
 C        -2.401332         2.918013         0.824369
 C        -2.324129         1.424842         0.530082
 H        -3.338395         2.920073         2.992983
 H         0.099097         1.725230         2.564464
 H        -1.023433         0.426795         2.652805
 H         0.659353         0.297929        -0.675677
 H         0.730723         2.622845         0.626405
 H         0.161371         2.651775        -1.057354
 H        -0.976185         4.367188         1.120506
 H        -1.371360         4.244381        -0.598552
 H        -3.314737         3.482928         0.975182
 H        -3.150833         0.670001         0.406758
