19
Iteration:  2397
 O        -3.143836         1.842839         2.968879
 C        -2.149331         1.982590         2.057623
 C        -0.649421         1.586615         2.115592
 C        -0.705352         1.301827         0.507155
 O        -0.266735         0.005469         0.005860
 C        -0.326768         2.418391        -0.393368
 C        -0.974006         3.611743         0.308673
 C        -2.344305         3.043554         1.026336
 C        -2.232924         1.448570         0.684062
 H        -3.637644         1.064016         2.820817
 H         0.114395         2.307127         2.504266
 H        -0.378082         0.591038         2.612554
 H         0.380101         0.175793        -0.744817
 H         0.764526         2.438213        -0.583847
 H        -0.687140         2.197523        -1.399518
 H        -0.473488         4.091247         1.106869
 H        -1.187376         4.337561        -0.442221
 H        -3.318052         3.545674         1.129614
 H        -3.005082         0.840116         0.099512
