19
Iteration:  4792
 O        -3.127375         1.827257         3.000091
 C        -2.200446         1.854327         1.941879
 C        -0.705845         1.521676         1.970775
 C        -0.719210         1.333122         0.434829
 O        -0.231874        -0.044965         0.216184
 C        -0.161936         2.519305        -0.190884
 C        -1.017963         3.736001         0.431209
 C        -2.353579         3.007821         0.860137
 C        -2.336342         1.485531         0.466921
 H        -3.000474         0.890801         3.370559
 H         0.051405         2.103216         2.448909
 H        -0.629168         0.567128         2.418926
 H         0.055057        -0.083563        -0.717327
 H         0.967778         2.544314        -0.105114
 H        -0.382543         2.646807        -1.238818
 H        -0.555160         4.187960         1.272609
 H        -1.221482         4.527531        -0.324518
 H        -3.213826         3.651727         1.009405
 H        -2.965024         0.831770        -0.203720
