19
Iteration:  4243
 O        -3.067725         1.656067         2.945358
 C        -2.107922         2.047510         1.950379
 C        -0.700852         1.464996         2.183532
 C        -0.688516         1.270513         0.541094
 O        -0.326620         0.020681        -0.027023
 C        -0.118701         2.543720        -0.185543
 C        -1.061895         3.702803         0.384213
 C        -2.380958         2.986047         0.795820
 C        -2.279183         1.525746         0.522520
 H        -3.688100         2.385909         3.178521
 H        -0.096351         2.333284         2.621597
 H        -0.751430         0.507816         2.664081
 H         0.455885        -0.323999         0.376791
 H         0.938656         2.620758        -0.194475
 H        -0.616947         2.226194        -1.186974
 H        -0.693532         4.077835         1.289206
 H        -1.338495         4.410202        -0.405834
 H        -3.360997         3.516786         0.665836
 H        -3.059381         0.792623         0.348953
