19
Iteration:  1455charge 0 multiplicity 1
 O        -3.133714         1.833647         2.912208
 C        -2.125794         2.031835         2.003967
 C        -0.770133         1.400919         2.124656
 C        -0.745878         1.351615         0.515387
 O        -0.235699         0.059938         0.078389
 C        -0.217040         2.500778        -0.242461
 C        -1.051003         3.619704         0.235012
 C        -2.213502         2.989473         0.923976
 C        -2.338235         1.465886         0.647654
 H        -3.518373         0.986680         2.752990
 H         0.055327         1.796305         2.704400
 H        -0.913255         0.307790         2.400699
 H         0.696339         0.131997         0.236945
 H         0.868449         2.441866        -0.179404
 H        -0.504984         2.385106        -1.298293
 H        -0.441832         4.199756         0.944595
 H        -1.243334         4.261155        -0.622591
 H        -3.022958         3.721244         1.043914
 H        -3.109485         1.031902         0.034637
