19
Iteration:  1888charge 0 multiplicity 1
 O        -3.143560         1.865731         2.958867
 C        -2.119131         1.913821         1.964995
 C        -0.697166         1.440377         2.076088
 C        -0.727999         1.292720         0.470958
 O        -0.253674        -0.028769         0.174847
 C        -0.207276         2.563667        -0.214635
 C        -1.055821         3.662287         0.315279
 C        -2.306922         2.980366         0.848160
 C        -2.306637         1.524959         0.566285
 H        -2.922439         1.017556         3.487483
 H         0.018385         2.067871         2.730913
 H        -0.565954         0.401511         2.424118
 H        -0.039369        -0.005967        -0.763643
 H         0.890207         2.536170        -0.011785
 H        -0.359454         2.607066        -1.312303
 H        -0.477092         4.326254         0.995410
 H        -1.376241         4.334063        -0.510737
 H        -3.196798         3.594475         0.883935
 H        -3.147925         1.069243        -0.019690
