19
Iteration:   719
 O        -3.081560         1.899027         2.996782
 C        -2.163484         1.940138         1.954784
 C        -0.792217         1.426181         2.064289
 C        -0.803451         1.289657         0.575125
 O        -0.248428         0.019235         0.022698
 C        -0.080251         2.494653        -0.049497
 C        -1.036707         3.624315         0.396928
 C        -2.315413         2.963339         0.835075
 C        -2.319394         1.500867         0.441108
 H        -3.843134         1.670237         2.476852
 H         0.011904         2.104625         2.413149
 H        -0.701403         0.448146         2.568180
 H         0.359302         0.303865        -0.702230
 H         0.956950         2.522667         0.280618
 H        -0.145260         2.229552        -1.165754
 H        -0.483603         4.117508         1.186292
 H        -1.023864         4.469839        -0.333021
 H        -3.266612         3.586394         0.833059
 H        -3.036345         0.861786        -0.112351
