19
Iteration:  2666
 O        -2.970371         1.922587         3.171776
 C        -2.167879         1.952975         1.982193
 C        -0.687295         1.450851         2.030271
 C        -0.756625         1.183128         0.486720
 O        -0.313471         0.036858        -0.070418
 C        -0.114768         2.521559        -0.029199
 C        -1.109449         3.614612         0.256706
 C        -2.359861         2.979772         0.876456
 C        -2.326779         1.494878         0.509877
 H        -3.808604         1.551575         2.868836
 H         0.183945         2.161359         2.280095
 H        -0.580014         0.442997         2.485106
 H         0.169130         0.409821        -0.818395
 H         0.886141         2.558412         0.452722
 H         0.016666         2.271914        -1.087298
 H        -0.843647         4.405947         1.001436
 H        -1.332555         4.140217        -0.729743
 H        -3.351577         3.333064         0.797323
 H        -3.104181         0.878652         0.143689
