19
Iteration:  1808charge 0 multiplicity 1
 O        -3.190030         1.969591         2.922253
 C        -2.116438         1.865177         2.058780
 C        -0.674503         1.387465         2.181602
 C        -0.711834         1.289659         0.550493
 O        -0.176969         0.128325        -0.096988
 C        -0.149288         2.508607        -0.175302
 C        -1.071723         3.617511         0.187422
 C        -2.327551         2.954047         0.960544
 C        -2.341300         1.506307         0.585239
 H        -3.526738         1.062143         3.267051
 H         0.062474         1.999886         2.773393
 H        -0.778558         0.433335         2.667456
 H        -0.213313        -0.593820         0.520381
 H         0.913835         2.574187        -0.064189
 H        -0.355099         2.485714        -1.267307
 H        -0.566118         4.300114         0.869723
 H        -1.352540         4.200708        -0.677733
 H        -3.224369         3.568336         0.775623
 H        -2.953575         0.747565         0.102631
