19
Iteration:  3205charge 0 multiplicity 1
 O        -3.097417         1.956928         3.199809
 C        -2.199289         1.907592         2.014162
 C        -0.744814         1.490634         2.101765
 C        -0.739429         1.225716         0.477417
 O        -0.166627         0.034552        -0.022845
 C        -0.120198         2.532048        -0.165300
 C        -1.090939         3.569212         0.315931
 C        -2.402562         2.913531         0.787082
 C        -2.298751         1.422705         0.431152
 H        -3.205296         2.898547         3.461529
 H         0.055909         2.138858         2.476498
 H        -0.711053         0.505197         2.600545
 H         0.497975         0.201498        -0.723442
 H         0.935235         2.641046         0.085281
 H        -0.049012         2.321905        -1.245954
 H        -0.717263         4.331974         0.995423
 H        -1.551221         4.116037        -0.537479
 H        -3.445547         3.321006         0.848675
 H        -3.014911         0.793985         0.029677
