19
Iteration:  2270
 O        -3.146903         1.917366         3.158291
 C        -2.153410         1.952033         2.048514
 C        -0.641609         1.417253         2.092461
 C        -0.685856         1.222654         0.589843
 O        -0.320187         0.110517        -0.136490
 C        -0.220576         2.469805        -0.204606
 C        -1.133492         3.635695         0.167159
 C        -2.238838         3.002866         0.893441
 C        -2.245254         1.466457         0.631883
 H        -3.758111         1.117632         3.075559
 H         0.094109         2.189121         2.473457
 H        -0.556565         0.442596         2.541549
 H         0.647217         0.116079        -0.195917
 H         0.855011         2.691245         0.027768
 H        -0.429670         2.183950        -1.262116
 H        -0.471702         4.460142         0.605089
 H        -1.510194         4.082958        -0.795147
 H        -3.243416         3.395026         0.873020
 H        -2.908960         0.758403         0.054154
