19
Iteration:  1942
 O        -3.041068         2.105511         3.106199
 C        -2.171389         1.853054         2.011014
 C        -0.800566         1.324396         2.129454
 C        -0.691098         1.274192         0.555313
 O        -0.311432         0.107203        -0.097282
 C        -0.056739         2.597870        -0.062563
 C        -1.124052         3.686913         0.198013
 C        -2.349970         2.832389         0.830608
 C        -2.281668         1.348306         0.493964
 H        -3.658862         1.312768         3.207524
 H         0.043795         1.968461         2.503453
 H        -0.723585         0.340513         2.563131
 H         0.632924         0.203193        -0.120833
 H         0.986302         2.690970         0.262996
 H        -0.034299         2.353405        -1.144419
 H        -0.583988         4.401234         0.849951
 H        -1.530182         4.235104        -0.647486
 H        -3.334138         3.297873         0.898261
 H        -3.034924         0.674521        -0.021216
