19
Iteration:  3954
 O        -3.078360         1.842284         3.007125
 C        -2.171202         1.889494         1.907779
 C        -0.832590         1.339724         2.169420
 C        -0.684453         1.316267         0.550468
 O        -0.302468         0.073197         0.006413
 C        -0.102292         2.558877        -0.074500
 C        -1.125198         3.704562         0.200690
 C        -2.305406         2.895032         0.863325
 C        -2.221992         1.510572         0.488542
 H        -3.120814         2.718998         3.340244
 H        -0.251009         1.881129         3.008880
 H        -0.676812         0.216399         2.535683
 H         0.587442        -0.105986        -0.300663
 H         0.992156         2.796577         0.223668
 H        -0.092401         2.265256        -1.149424
 H        -0.731506         4.432130         0.935354
 H        -1.725123         4.226863        -0.529902
 H        -3.309854         3.318235         0.891251
 H        -2.844860         0.902578        -0.080331
