19
Iteration:  3658
 O        -3.051176         1.762662         3.116209
 C        -2.241377         1.925923         2.012582
 C        -0.766069         1.448420         2.056284
 C        -0.723252         1.340925         0.516177
 O        -0.226591         0.044410         0.096762
 C        -0.135328         2.534077        -0.125728
 C        -1.062745         3.654022         0.167186
 C        -2.327310         2.910067         0.864101
 C        -2.329474         1.497841         0.467881
 H        -2.944572         2.500934         3.675237
 H        -0.212248         2.216511         2.586012
 H        -0.812887         0.444457         2.663096
 H         0.254114         0.317577        -0.735028
 H         0.967408         2.629159         0.193456
 H        -0.053870         2.281806        -1.220274
 H        -0.723856         4.609364         0.727271
 H        -1.300692         3.924932        -0.874612
 H        -3.265840         3.329104         0.640395
 H        -3.019164         0.966304        -0.191939
