19
Iteration:  4167charge 0 multiplicity 1
 O        -3.030927         1.871806         3.056217
 C        -2.144017         2.040951         1.966976
 C        -0.797612         1.285556         2.060455
 C        -0.756855         1.203729         0.575176
 O        -0.144693         0.030028        -0.042835
 C        -0.121087         2.558491         0.009677
 C        -1.111301         3.723495         0.328629
 C        -2.365750         2.929459         0.748436
 C        -2.314757         1.478571         0.547036
 H        -3.683483         2.552922         3.030697
 H         0.237629         1.585488         2.609912
 H        -1.091334         0.289339         2.408049
 H         0.207339         0.387066        -0.901615
 H         0.847227         2.774483         0.331538
 H        -0.185685         2.415158        -1.157857
 H        -0.914511         4.484914         1.055833
 H        -1.286445         4.227301        -0.640884
 H        -3.441160         3.165390         0.478219
 H        -3.114860         0.918540         0.106363
