19
Iteration:   300
 O        -3.202751         1.968066         3.004114
 C        -2.230175         1.883649         1.985816
 C        -0.765784         1.366804         2.186835
 C        -0.664575         1.276590         0.529738
 O        -0.164240         0.095958        -0.109176
 C        -0.104002         2.547337        -0.106180
 C        -1.060081         3.681906         0.304836
 C        -2.273796         2.891348         0.753987
 C        -2.230343         1.404475         0.618826
 H        -4.043005         2.320192         2.578205
 H        -0.211271         2.201708         2.676896
 H        -0.635093         0.325400         2.765629
 H        -0.707330        -0.622160         0.221234
 H         0.959937         2.665201         0.247298
 H        -0.085687         2.350768        -1.190379
 H        -0.578887         4.272767         1.135779
 H        -1.140800         4.572117        -0.440485
 H        -3.298297         3.239679         0.758601
 H        -3.014905         0.904039         0.001059
