19
Iteration:  3967
 O        -3.092268         1.908736         3.111416
 C        -2.231510         1.832924         1.998091
 C        -0.795402         1.345492         2.137024
 C        -0.696418         1.294562         0.565435
 O        -0.287433         0.105476        -0.044367
 C        -0.023865         2.588279        -0.052734
 C        -1.132173         3.619637         0.244782
 C        -2.326290         2.890744         0.825876
 C        -2.281888         1.417183         0.382046
 H        -3.151205         2.902428         3.352652
 H        -0.041775         2.036376         2.586866
 H        -0.963647         0.260267         2.558898
 H         0.591913         0.388579        -0.392623
 H         0.956040         2.898419         0.437080
 H         0.144934         2.509224        -1.177687
 H        -0.755877         4.496965         0.826243
 H        -1.212380         4.042652        -0.761675
 H        -3.238812         3.423080         0.845277
 H        -2.990624         0.816546        -0.187673
