19
Iteration:  1218charge 0 multiplicity 1
 O        -3.190470         2.046576         2.993558
 C        -2.142471         2.000150         2.052229
 C        -0.838596         1.249810         2.121711
 C        -0.703976         1.239072         0.590486
 O        -0.140092         0.196255        -0.145551
 C        -0.136781         2.462660        -0.144488
 C        -1.075528         3.665936         0.300770
 C        -2.261750         2.901363         0.816750
 C        -2.260388         1.449214         0.555442
 H        -3.308043         1.109875         3.299292
 H         0.060266         1.936255         2.520425
 H        -0.925792         0.344217         2.710848
 H        -0.238486        -0.622656         0.320983
 H         0.942333         2.442614         0.035054
 H        -0.408485         2.152935        -1.176133
 H        -0.535984         4.351167         0.984803
 H        -1.406106         4.226920        -0.557218
 H        -3.200662         3.495942         0.844244
 H        -3.231448         0.953966         0.289603
