19
Iteration:    40
 O        -3.066375         1.894711         3.123314
 C        -2.301381         1.932124         1.923121
 C        -0.736352         1.488804         1.993390
 C        -0.757085         1.286041         0.545612
 O        -0.054460         0.087281         0.195855
 C        -0.199611         2.508582        -0.177670
 C        -1.054188         3.652060         0.297083
 C        -2.370955         2.947289         0.670743
 C        -2.298797         1.404707         0.480031
 H        -3.766491         1.202344         2.929406
 H        -0.034654         2.414046         2.409037
 H        -0.608273         0.553260         2.596881
 H        -0.103686        -0.479752         1.004076
 H         0.920710         2.525199        -0.178352
 H        -0.320574         2.321507        -1.305623
 H        -0.637678         4.160624         1.193126
 H        -1.181832         4.535304        -0.375003
 H        -3.309930         3.378740         0.381351
 H        -2.977601         0.924628        -0.181911
