19
Iteration:  1719charge 0 multiplicity 1
 O        -3.177939         1.987194         3.034993
 C        -2.188200         1.898917         1.950567
 C        -0.751899         1.509338         2.109916
 C        -0.601228         1.261722         0.523300
 O        -0.344025        -0.002057        -0.021561
 C        -0.039634         2.501184        -0.154057
 C        -1.161913         3.660844         0.332549
 C        -2.335824         2.905999         0.843362
 C        -2.207395         1.476408         0.495006
 H        -3.154337         1.220034         3.713973
 H        -0.000821         2.198456         2.566531
 H        -0.703299         0.571075         2.679171
 H         0.540688        -0.220835        -0.332085
 H         0.966050         2.640880         0.242491
 H        -0.014815         2.414770        -1.274024
 H        -0.868317         4.209090         1.222941
 H        -1.520050         4.333002        -0.417228
 H        -3.345076         3.342131         0.791607
 H        -2.703804         0.839279        -0.256393
