19
Iteration:   685charge 0 multiplicity 1
 O        -3.059333         1.839453         3.095024
 C        -2.220424         2.002558         1.969208
 C        -0.920709         1.317793         2.008414
 C        -0.760165         1.281007         0.504425
 O        -0.164594        -0.065354         0.140985
 C         0.009997         2.559388        -0.026415
 C        -1.047027         3.743113         0.277159
 C        -2.284905         3.066385         0.843412
 C        -2.365388         1.562695         0.386591
 H        -3.490519         0.969890         3.051156
 H        -0.100977         1.802521         2.519977
 H        -0.865231         0.159503         2.191325
 H        -0.345295        -0.052651        -0.857623
 H         0.968699         2.869589         0.427864
 H         0.165434         2.341828        -1.151869
 H        -0.563550         4.313395         1.023154
 H        -1.335502         4.213702        -0.715714
 H        -3.309561         3.452712         0.794647
 H        -3.053194         1.031697        -0.236344
