19
Iteration:  4648charge 0 multiplicity 1
 O        -3.154679         1.876701         3.000573
 C        -2.195542         1.942759         2.018132
 C        -0.738909         1.474287         2.141763
 C        -0.680177         1.328685         0.522213
 O        -0.243404        -0.023151         0.063243
 C        -0.260964         2.559031        -0.277457
 C        -1.008735         3.630166         0.395774
 C        -2.289284         2.930632         0.847273
 C        -2.248567         1.486139         0.495556
 H        -3.235784         0.986591         3.387211
 H        -0.139049         2.268709         2.661422
 H        -0.560709         0.521171         2.583059
 H         0.355253         0.061279        -0.674635
 H         0.869247         2.641486        -0.259423
 H        -0.538145         2.376990        -1.279636
 H        -0.518911         4.106617         1.170715
 H        -1.240336         4.438759        -0.336994
 H        -3.350785         3.395126         0.787402
 H        -2.789358         1.203966        -0.409637
