19
Iteration:  4070
 O        -3.146971         1.614379         2.843083
 C        -2.156161         1.960162         1.963218
 C        -0.679018         1.583017         1.968130
 C        -0.820246         1.264459         0.549007
 O        -0.154887         0.020123         0.207467
 C        -0.245066         2.432833        -0.160613
 C        -0.968255         3.690569         0.399079
 C        -2.316099         3.026910         0.854210
 C        -2.347718         1.591870         0.527131
 H        -3.067358         2.143423         3.665907
 H         0.041214         2.284015         2.333716
 H        -0.600786         0.737082         2.514086
 H        -0.291893        -0.092690        -0.774721
 H         0.793845         2.458519         0.042943
 H        -0.438793         2.311065        -1.257585
 H        -0.285186         4.197258         1.085531
 H        -1.120817         4.546474        -0.306484
 H        -3.271694         3.630092         0.825186
 H        -3.119173         0.901677         0.224952
