19
Iteration:  3025charge 0 multiplicity 1
 O        -3.010116         1.805342         3.261404
 C        -2.279734         1.886699         1.979939
 C        -0.862871         1.371157         2.138235
 C        -0.719262         1.291699         0.542094
 O        -0.065056         0.115182         0.023226
 C        -0.157335         2.500430        -0.244253
 C        -1.099136         3.669365         0.185137
 C        -2.349303         2.983753         0.850692
 C        -2.303836         1.469234         0.466332
 H        -3.613407         2.639158         3.428144
 H        -0.183678         1.899384         2.807806
 H        -0.798547         0.365168         2.515292
 H        -0.031491         0.135276        -0.926104
 H         0.925109         2.582568        -0.036262
 H        -0.392618         2.106793        -1.227587
 H        -0.367214         4.424521         0.614577
 H        -1.513576         4.329446        -0.618028
 H        -3.183641         3.622662         0.456653
 H        -2.952940         0.969911        -0.208043
