19
Iteration:  3364charge 0 multiplicity 1
 O        -3.052233         1.766282         3.092589
 C        -2.176050         1.939768         1.962721
 C        -0.755699         1.534288         1.982709
 C        -0.766959         1.219863         0.517425
 O        -0.152935         0.083625         0.164504
 C        -0.253162         2.446508        -0.274354
 C        -1.039646         3.648398         0.331273
 C        -2.279406         2.980027         0.900320
 C        -2.305719         1.513107         0.501522
 H        -3.875712         2.228572         2.811000
 H        -0.060460         2.275717         2.404773
 H        -0.559163         0.598231         2.617556
 H         0.172022         0.130176        -0.758252
 H         0.873218         2.457005        -0.120409
 H        -0.554337         2.247537        -1.349371
 H        -0.629325         4.144752         1.198140
 H        -1.313898         4.256903        -0.506951
 H        -3.295231         3.458236         0.882628
 H        -3.127328         1.092421         0.023444
