19
Iteration:  1002charge 0 multiplicity 1
 O        -3.133449         1.877462         3.025995
 C        -2.143452         1.927169         2.033008
 C        -0.767772         1.283713         2.134135
 C        -0.706218         1.311536         0.475688
 O        -0.209865        -0.024263        -0.045782
 C        -0.151152         2.549060        -0.184369
 C        -1.101169         3.704971         0.249574
 C        -2.273505         2.986702         0.873061
 C        -2.285750         1.535554         0.551421
 H        -3.832411         2.482815         2.868177
 H        -0.072821         1.982946         2.594593
 H        -0.734951         0.227836         2.589730
 H         0.256252        -0.472938         0.717515
 H         0.815514         2.885874         0.198206
 H        -0.108778         2.360345        -1.264279
 H        -0.574905         4.305304         1.001323
 H        -1.382690         4.468581        -0.493396
 H        -3.245877         3.477096         0.789521
 H        -3.055781         0.919882         0.083090
