19
Iteration:  4758
 O        -3.145509         1.836255         2.984347
 C        -2.119390         1.952994         1.978893
 C        -0.667233         1.447721         2.155618
 C        -0.708595         1.316282         0.533335
 O        -0.268937         0.017321        -0.005525
 C        -0.115862         2.510389        -0.070808
 C        -1.131511         3.679162         0.219391
 C        -2.316597         2.969663         0.857562
 C        -2.284108         1.502804         0.593672
 H        -3.534950         0.881326         2.974447
 H         0.049373         2.034167         2.693929
 H        -0.797958         0.498599         2.464681
 H        -0.070135         0.123919        -0.975087
 H         0.943884         2.536064         0.335499
 H        -0.060119         2.400480        -1.147242
 H        -0.810374         4.403384         0.900289
 H        -1.377987         4.212891        -0.725516
 H        -3.155128         3.650829         1.017652
 H        -3.015411         0.933146        -0.042524
