19
Iteration:  1890
 O        -3.153282         1.865116         2.957389
 C        -2.129142         1.937808         1.971939
 C        -0.686233         1.437751         2.061760
 C        -0.716221         1.274708         0.473913
 O        -0.246250        -0.035284         0.159793
 C        -0.201273         2.554015        -0.211920
 C        -1.072996         3.670839         0.316072
 C        -2.290371         2.988155         0.852356
 C        -2.313969         1.523471         0.572619
 H        -2.937641         1.065295         3.465422
 H        -0.045602         2.045341         2.714756
 H        -0.586582         0.378521         2.484894
 H         0.000812         0.112477        -0.766760
 H         0.901728         2.491288        -0.018658
 H        -0.348559         2.588442        -1.291229
 H        -0.520963         4.345477         0.994987
 H        -1.392849         4.353217        -0.530366
 H        -3.175858         3.605663         0.929089
 H        -3.162752         0.973804         0.069475
