19
Iteration:  1827charge 0 multiplicity 1
 O        -3.168426         1.854255         2.966481
 C        -2.126502         2.041685         1.966151
 C        -0.692351         1.534184         2.056835
 C        -0.739010         1.267012         0.556923
 O        -0.228925         0.087483        -0.006761
 C        -0.181574         2.445512        -0.190400
 C        -1.047632         3.659398         0.367207
 C        -2.319343         2.967981         0.814897
 C        -2.238940         1.426264         0.608125
 H        -3.179942         0.851285         2.920100
 H         0.069277         2.224842         2.304863
 H        -0.584437         0.527861         2.637047
 H        -0.678304        -0.716544         0.216994
 H         0.904863         2.517395         0.080081
 H        -0.181147         2.225114        -1.268222
 H        -0.534341         4.195528         1.194514
 H        -1.396548         4.496083        -0.297447
 H        -3.340311         3.450147         0.875838
 H        -3.154769         0.944277         0.183306
