19
Iteration:   973
 O        -3.167499         1.711000         2.922513
 C        -2.145497         1.921993         1.986865
 C        -0.687582         1.465582         2.174571
 C        -0.690903         1.369714         0.562523
 O        -0.408261         0.040265        -0.036570
 C        -0.110870         2.449953        -0.135211
 C        -1.076131         3.668502         0.253867
 C        -2.247830         2.978048         0.824003
 C        -2.258980         1.554307         0.600988
 H        -3.309556         2.496424         3.537927
 H         0.014215         2.267588         2.562132
 H        -0.513382         0.504224         2.582938
 H         0.335805        -0.337027         0.452186
 H         0.966894         2.626663        -0.088496
 H        -0.151655         2.166683        -1.222444
 H        -0.694956         4.417076         1.006991
 H        -1.327981         4.375403        -0.566280
 H        -3.179848         3.536238         0.699565
 H        -2.903272         0.898952         0.006617
