19
Iteration:  2180charge 0 multiplicity 1
 O        -3.126406         1.918364         3.103837
 C        -2.177831         1.854975         2.013054
 C        -0.719455         1.460319         2.089813
 C        -0.777254         1.300985         0.498953
 O        -0.226561         0.118727        -0.077493
 C        -0.122262         2.468810        -0.210724
 C        -0.985324         3.689827         0.239513
 C        -2.324240         2.944989         0.889038
 C        -2.311725         1.457143         0.532896
 H        -2.699906         1.447203         3.899549
 H        -0.061334         2.130757         2.658647
 H        -0.575790         0.442329         2.454049
 H        -0.697826        -0.613074         0.303806
 H         0.912392         2.514688         0.085721
 H        -0.235267         2.276112        -1.306476
 H        -0.631532         4.421687         1.002559
 H        -1.499165         4.200935        -0.556194
 H        -3.381128         3.307579         0.865634
 H        -3.043876         1.040227        -0.102091
