19
Iteration:  4324charge 0 multiplicity 1
 O        -3.131977         1.839260         3.038723
 C        -2.155661         1.967568         1.930418
 C        -0.804755         1.413015         2.103568
 C        -0.709465         1.262001         0.577490
 O        -0.290031         0.053937        -0.001411
 C        -0.142478         2.571054        -0.133122
 C        -1.031071         3.706880         0.339386
 C        -2.349003         2.906955         0.706483
 C        -2.260351         1.465102         0.556665
 H        -2.696319         1.314219         3.691395
 H         0.070727         1.942667         2.574664
 H        -0.859078         0.355377         2.471385
 H         0.621268         0.209850        -0.249570
 H         0.955680         2.588415         0.014542
 H        -0.200875         2.501015        -1.181634
 H        -0.745152         4.454045         1.109985
 H        -1.338763         4.379192        -0.420804
 H        -3.264873         3.496674         0.754721
 H        -2.946745         0.834419         0.028653
