19
Iteration:  1310
 O        -3.156130         1.863983         2.941446
 C        -2.199484         1.969898         1.966067
 C        -0.688598         1.533888         2.071991
 C        -0.754682         1.302763         0.519974
 O        -0.203386        -0.058072         0.133293
 C        -0.247554         2.508292        -0.252013
 C        -0.928279         3.649858         0.406293
 C        -2.277002         2.961027         0.859044
 C        -2.297355         1.519746         0.586773
 H        -3.406353         0.870107         3.020443
 H         0.059345         2.243130         2.337707
 H        -0.663849         0.425724         2.533671
 H        -0.357614        -0.054623        -0.866226
 H         0.875442         2.335791        -0.137935
 H        -0.483462         2.573818        -1.325317
 H        -0.593891         4.282167         1.214692
 H        -1.335020         4.275769        -0.416733
 H        -3.105609         3.661695         0.894735
 H        -3.097998         1.025889         0.023780
