19
Iteration:  2832charge 0 multiplicity 1
 O        -3.080082         1.828061         3.088380
 C        -2.105121         2.030824         2.031755
 C        -0.753710         1.514830         2.034894
 C        -0.763486         1.222471         0.472803
 O        -0.237461         0.034192        -0.105458
 C        -0.168571         2.438633        -0.114970
 C        -1.075627         3.648258         0.293352
 C        -2.332397         3.026023         0.904194
 C        -2.349277         1.477814         0.578352
 H        -3.138542         0.903523         2.935126
 H         0.129902         2.119741         2.380129
 H        -0.855565         0.518299         2.616008
 H         0.665019         0.064298         0.210764
 H         0.894816         2.477926         0.146847
 H        -0.221563         2.481965        -1.204229
 H        -0.670184         4.457321         0.904819
 H        -1.235873         4.245197        -0.653566
 H        -3.295261         3.599419         0.739968
 H        -3.198230         0.909606         0.156944
