19
Iteration:  3314charge 0 multiplicity 1
 O        -2.999403         1.731113         2.994836
 C        -2.155887         2.015729         1.930777
 C        -0.624302         1.531214         2.029998
 C        -0.749897         1.296062         0.519946
 O        -0.239304        -0.049155         0.212579
 C        -0.250534         2.566847        -0.223235
 C        -1.085633         3.704929         0.343060
 C        -2.369321         2.989467         0.865300
 C        -2.251361         1.489859         0.524376
 H        -3.878669         1.939748         2.772895
 H         0.237616         2.135407         2.373313
 H        -0.537374         0.523517         2.468977
 H        -0.818968        -0.549961        -0.419771
 H         0.816933         2.609810        -0.016508
 H        -0.453135         2.286283        -1.272357
 H        -0.569778         4.300182         1.182582
 H        -1.400787         4.384776        -0.507295
 H        -3.369669         3.400584         0.614410
 H        -2.932931         0.805558        -0.022621
