19
Iteration:   163
 O        -3.068203         2.044754         2.994436
 C        -2.193373         1.931503         1.924846
 C        -0.837891         1.426551         2.060136
 C        -0.665299         1.280210         0.474709
 O        -0.136476         0.035047         0.096142
 C        -0.103021         2.543049        -0.173691
 C        -1.122909         3.623788         0.381575
 C        -2.427089         2.890753         0.791574
 C        -2.280554         1.437061         0.467732
 H        -3.388450         1.165095         3.206791
 H        -0.052802         2.233914         2.523118
 H        -1.031226         0.399837         2.465553
 H         0.370338        -0.444378         0.796752
 H         0.919610         2.682904         0.249312
 H        -0.164706         2.418720        -1.310186
 H        -0.678497         4.208620         1.191001
 H        -1.294251         4.251217        -0.492663
 H        -3.371301         3.400750         1.039699
 H        -3.049235         0.699688         0.113615
