19
Iteration:  2695charge 0 multiplicity 1
 O        -2.895474         1.977848         3.098246
 C        -2.024067         1.955085         1.897746
 C        -0.784651         1.208987         2.064032
 C        -0.721171         1.229206         0.498934
 O        -0.298067        -0.036447         0.077878
 C        -0.137721         2.705245        -0.113802
 C        -1.223764         3.772747         0.266214
 C        -2.363834         2.912055         0.852741
 C        -2.279404         1.473718         0.540644
 H        -3.839745         1.781610         2.748896
 H         0.107669         1.502038         2.654651
 H        -0.968507         0.155887         2.169756
 H        -0.591557        -0.032070        -0.882338
 H         0.874082         2.854103         0.316565
 H         0.036725         2.460853        -1.189047
 H        -0.981431         4.484317         1.062247
 H        -1.388180         4.449698        -0.543535
 H        -3.337079         3.367825         0.973303
 H        -2.967562         0.709886         0.165738
