19
Iteration:  2834
 O        -3.069006         1.833129         3.086660
 C        -2.089837         2.043873         2.026513
 C        -0.746501         1.501574         2.051679
 C        -0.769300         1.231196         0.474643
 O        -0.242700         0.033049        -0.108260
 C        -0.167460         2.445518        -0.115392
 C        -1.085420         3.647007         0.290237
 C        -2.332423         3.024785         0.894684
 C        -2.361820         1.455569         0.568135
 H        -3.268831         0.899039         2.927336
 H         0.085882         2.101475         2.451542
 H        -0.852024         0.550235         2.688418
 H         0.721689         0.036774         0.113309
 H         0.866213         2.534498         0.195216
 H        -0.198390         2.504618        -1.194486
 H        -0.686004         4.456253         0.924794
 H        -1.153170         4.288220        -0.631756
 H        -3.267699         3.533893         0.744381
 H        -3.211319         0.921182         0.203571
