19
Iteration:  3014
 O        -2.955380         1.727708         3.193714
 C        -2.267992         2.012384         1.971930
 C        -0.803983         1.460957         2.086815
 C        -0.729346         1.276511         0.557853
 O        -0.089178         0.051336         0.051881
 C        -0.233524         2.448457        -0.183130
 C        -1.057425         3.697447         0.193448
 C        -2.369466         2.995133         0.797595
 C        -2.313385         1.504297         0.544639
 H        -3.812577         2.259170         3.306538
 H        -0.010444         2.009874         2.592313
 H        -1.015656         0.466930         2.439104
 H        -0.106446         0.084169        -0.943416
 H         0.850315         2.597144         0.017457
 H        -0.205867         2.292616        -1.264154
 H        -0.556448         4.254104         1.046929
 H        -1.403886         4.357070        -0.630386
 H        -3.441991         3.224904         0.534013
 H        -2.851515         1.119171        -0.279730
