19
Iteration:  2137charge 0 multiplicity 1
 O        -2.993234         2.035243         3.033813
 C        -2.091404         1.989174         2.028863
 C        -0.721600         1.271752         2.166904
 C        -0.758955         1.230925         0.469698
 O        -0.292146         0.036207        -0.159164
 C        -0.071981         2.573423        -0.089058
 C        -1.270187         3.767321         0.214540
 C        -2.311438         2.944753         0.830969
 C        -2.323361         1.377374         0.643984
 H        -3.624350         1.259118         2.841179
 H         0.214942         1.580772         2.767431
 H        -0.983473         0.268789         2.540252
 H         0.490763        -0.105293         0.362309
 H         0.864633         2.597605         0.472539
 H         0.149557         2.581921        -1.202316
 H        -0.804459         4.556676         0.875317
 H        -1.435129         4.010575        -0.802079
 H        -3.263728         3.456678         1.043075
 H        -3.035966         0.682250         0.272997
