19
Iteration:  4374charge 0 multiplicity 1
 O        -3.117983         2.088991         2.993137
 C        -2.143253         1.837912         1.922336
 C        -0.676882         1.366461         2.053346
 C        -0.770788         1.213278         0.457704
 O        -0.192065         0.079460        -0.054931
 C        -0.149662         2.558255        -0.015654
 C        -1.115526         3.672223         0.330562
 C        -2.340057         2.929195         0.954267
 C        -2.370305         1.359091         0.521935
 H        -3.606447         1.178740         3.128884
 H         0.093954         2.051904         2.401451
 H        -0.436403         0.401039         2.381504
 H         0.759043         0.213325         0.024633
 H         0.881933         2.742567         0.289148
 H        -0.085682         2.349353        -1.171129
 H        -0.728582         4.254543         1.174075
 H        -1.207491         4.475197        -0.469583
 H        -3.264093         3.418916         0.899789
 H        -3.232787         0.865142        -0.003566
