19
Iteration:  3882
 O        -3.126869         1.647346         2.999685
 C        -2.250326         1.871560         1.922278
 C        -0.797738         1.563748         2.116181
 C        -0.694251         1.347675         0.576409
 O        -0.235330         0.027382         0.105296
 C        -0.183987         2.485816        -0.317108
 C        -0.976734         3.711927         0.399371
 C        -2.253352         2.985668         0.798618
 C        -2.264699         1.552110         0.455477
 H        -2.997159         2.203768         3.729598
 H        -0.184048         2.319601         2.512219
 H        -0.469262         0.718374         2.654359
 H        -0.634912        -0.655331         0.657941
 H         0.872297         2.573995        -0.449378
 H        -0.637076         2.359287        -1.314336
 H        -0.467465         4.251516         1.219015
 H        -1.188862         4.470297        -0.406140
 H        -3.070832         3.645883         0.759674
 H        -2.953882         0.964155        -0.098705
