19
Iteration:  4571
 O        -3.039760         1.897279         3.080759
 C        -2.211373         1.869791         1.971752
 C        -0.773902         1.445937         2.134958
 C        -0.713298         1.309357         0.545960
 O        -0.397151         0.083192        -0.040426
 C        -0.020892         2.610911        -0.126904
 C        -1.085139         3.639351         0.315808
 C        -2.352543         2.899291         0.725825
 C        -2.223690         1.455149         0.487205
 H        -3.203558         0.985720         3.532250
 H        -0.029364         2.119071         2.564080
 H        -0.856454         0.468270         2.494286
 H         0.452589        -0.199059         0.309004
 H         1.026747         2.891857         0.110700
 H        -0.136183         2.495735        -1.131465
 H        -0.780645         4.289201         1.041341
 H        -1.266702         4.347994        -0.515020
 H        -3.468020         3.242628         0.869174
 H        -2.763277         0.797327        -0.215771
