19
Iteration:  2858charge 0 multiplicity 1
 O        -2.981311         1.959811         3.075181
 C        -2.118094         1.842280         1.993269
 C        -0.733114         1.394364         2.093188
 C        -0.702405         1.273465         0.591573
 O        -0.368858         0.046000        -0.058868
 C        -0.129591         2.545832        -0.098359
 C        -1.155594         3.684923         0.317050
 C        -2.376006         2.917840         0.759630
 C        -2.232717         1.430505         0.568322
 H        -3.873235         1.873221         2.730949
 H         0.132647         1.900274         2.507947
 H        -0.702439         0.375272         2.476761
 H         0.318630         0.323843        -0.655974
 H         0.908753         2.724670         0.201562
 H        -0.167871         2.489142        -1.196886
 H        -0.774250         4.411071         1.074399
 H        -1.407620         4.458334        -0.444395
 H        -3.287096         3.441984         0.769691
 H        -2.754684         0.713837        -0.050744
