19
Iteration:  3449
 O        -3.040141         1.922923         3.087809
 C        -2.107046         2.023923         1.997763
 C        -0.746861         1.336444         1.973477
 C        -0.708739         1.222756         0.504357
 O        -0.086075         0.035580         0.033819
 C        -0.115975         2.564258         0.003433
 C        -1.232600         3.592511         0.225761
 C        -2.397121         2.948626         0.856708
 C        -2.395194         1.443065         0.484717
 H        -3.213414         2.861204         3.455381
 H         0.085894         1.832931         2.530290
 H        -0.893228         0.298166         2.254879
 H        -0.200264        -0.108131        -0.897801
 H         0.834576         2.727173         0.624148
 H         0.173918         2.469837        -1.058232
 H        -0.912470         4.488913         0.808492
 H        -1.496110         4.097443        -0.707372
 H        -3.385583         3.443848         0.866831
 H        -3.104675         0.846275        -0.008521
