19
Iteration:  3391charge 0 multiplicity 1
 O        -3.048451         1.890485         3.082693
 C        -2.142156         1.956127         2.003311
 C        -0.745681         1.399816         2.086055
 C        -0.748762         1.185795         0.481401
 O        -0.154890         0.026348        -0.011475
 C        -0.151193         2.519782        -0.153002
 C        -1.146781         3.672462         0.237558
 C        -2.397597         3.000703         0.846554
 C        -2.290551         1.455390         0.592650
 H        -3.707720         2.557639         2.869793
 H        -0.042044         2.028808         2.681468
 H        -0.699071         0.463140         2.577491
 H         0.363724         0.217101        -0.830421
 H         0.743632         2.717724         0.424537
 H         0.081769         2.396116        -1.184320
 H        -0.751437         4.164730         1.145075
 H        -1.329627         4.346216        -0.652409
 H        -3.416331         3.370100         0.666291
 H        -3.093018         0.660527         0.395084
