19
Iteration:  4748
 O        -3.136470         1.872155         3.025762
 C        -2.171673         1.938685         2.034736
 C        -0.734586         1.345264         2.155882
 C        -0.723464         1.289807         0.592263
 O        -0.275243         0.093439        -0.020650
 C        -0.066618         2.557734        -0.099883
 C        -1.084492         3.667499         0.175300
 C        -2.348359         3.006600         0.849009
 C        -2.220259         1.465709         0.554566
 H        -3.561951         0.943242         2.939869
 H         0.015302         1.910406         2.699802
 H        -0.635847         0.338572         2.498785
 H        -0.256713         0.259134        -0.984209
 H         1.014755         2.819053         0.154753
 H        -0.091356         2.252301        -1.123826
 H        -0.714747         4.490110         0.708333
 H        -1.373099         4.087137        -0.835294
 H        -3.338549         3.412948         1.043449
 H        -2.856666         0.667325         0.046151
