19
Iteration:  2174charge 0 multiplicity 1
 O        -3.150015         1.947871         3.084212
 C        -2.187681         1.899862         1.999079
 C        -0.626404         1.389515         2.115221
 C        -0.796326         1.290529         0.497006
 O        -0.241807         0.133841        -0.095977
 C        -0.124932         2.478885        -0.180679
 C        -1.060872         3.670170         0.250584
 C        -2.331637         2.910894         0.895584
 C        -2.285142         1.463070         0.531872
 H        -2.779773         1.453734         3.835485
 H         0.212795         2.050723         2.520620
 H        -0.630346         0.398018         2.630824
 H        -0.506266        -0.674462         0.406552
 H         0.959082         2.473631         0.113270
 H        -0.181163         2.259501        -1.247174
 H        -0.627615         4.498485         0.834653
 H        -1.582124         4.263277        -0.555650
 H        -3.212502         3.552443         0.936085
 H        -3.009504         1.068060        -0.233339
