19
Iteration:    35charge 0 multiplicity 1
 O        -3.029241         1.860772         3.110523
 C        -2.334320         1.928108         1.906007
 C        -0.755863         1.518536         1.995332
 C        -0.732595         1.258635         0.530908
 O        -0.041134         0.096845         0.193938
 C        -0.207007         2.493589        -0.184234
 C        -1.024090         3.637038         0.310161
 C        -2.412200         2.950439         0.652936
 C        -2.302961         1.439118         0.524376
 H        -3.929055         1.461593         3.087077
 H        -0.100336         2.294687         2.284872
 H        -0.621374         0.697038         2.708551
 H        -0.013461        -0.512099         0.936422
 H         0.857259         2.552303         0.002936
 H        -0.356032         2.392362        -1.224428
 H        -0.589023         4.139443         1.186538
 H        -1.086216         4.399182        -0.469904
 H        -3.398945         3.438219         0.423355
 H        -2.980033         0.990316        -0.266814
