19
Iteration:   769
 O        -3.208546         1.813636         2.904033
 C        -2.211010         1.941658         1.927486
 C        -0.741819         1.383951         2.132617
 C        -0.694871         1.274403         0.585859
 O        -0.279524         0.080788         0.019169
 C        -0.187354         2.488500        -0.271645
 C        -0.994972         3.648743         0.440326
 C        -2.239486         2.992934         0.869195
 C        -2.257289         1.476568         0.528419
 H        -3.632251         2.638165         3.229476
 H        -0.001297         2.053792         2.590801
 H        -0.713879         0.393577         2.681062
 H         0.629237        -0.154256         0.181015
 H         0.905688         2.720620        -0.239788
 H        -0.585452         2.327151        -1.270477
 H        -0.324585         4.184187         1.146937
 H        -0.943490         4.442848        -0.317760
 H        -3.167731         3.504182         1.053075
 H        -3.022971         0.968758        -0.015115
