19
Iteration:  2079charge 0 multiplicity 1
 O        -3.034946         1.745769         3.068008
 C        -2.165813         1.947577         1.967692
 C        -0.715280         1.524478         2.017294
 C        -0.732475         1.273773         0.485706
 O        -0.259336        -0.043161         0.146242
 C        -0.171413         2.525011        -0.174158
 C        -1.106521         3.697303         0.266863
 C        -2.288826         2.962769         0.831357
 C        -2.349392         1.494760         0.536000
 H        -3.484757         2.508914         3.382963
 H         0.164108         2.072371         2.320102
 H        -0.550777         0.493948         2.484141
 H         0.057187         0.015712        -0.808458
 H         0.823826         2.841414         0.168006
 H        -0.180963         2.511161        -1.271318
 H        -0.626588         4.230546         1.102959
 H        -1.145071         4.500519        -0.497607
 H        -3.292583         3.369226         0.747315
 H        -3.279177         0.971370         0.145636
