19
Iteration:   720charge 0 multiplicity 1
 O        -3.091037         1.903021         3.000646
 C        -2.168608         1.939393         1.951918
 C        -0.794968         1.422007         2.056773
 C        -0.789590         1.286092         0.578692
 O        -0.252642         0.017490         0.017891
 C        -0.078836         2.503996        -0.053394
 C        -1.030012         3.619810         0.388144
 C        -2.319788         2.952636         0.842641
 C        -2.311461         1.501175         0.454730
 H        -3.855206         1.694981         2.443754
 H         0.023218         2.130599         2.401055
 H        -0.710315         0.477821         2.586050
 H         0.368638         0.299477        -0.707382
 H         0.969767         2.542198         0.265794
 H        -0.187497         2.233941        -1.183512
 H        -0.488217         4.123200         1.205938
 H        -1.028086         4.480199        -0.293155
 H        -3.248353         3.614684         0.849788
 H        -3.009054         0.849159        -0.128738
