19
Iteration:  2395charge 0 multiplicity 1
 O        -3.149636         1.842769         2.979672
 C        -2.144779         2.003593         2.054418
 C        -0.628199         1.593103         2.105152
 C        -0.718649         1.281053         0.506352
 O        -0.261444         0.008722        -0.007859
 C        -0.328614         2.408978        -0.384861
 C        -0.964872         3.610998         0.301640
 C        -2.347571         3.046987         1.012123
 C        -2.243015         1.437352         0.689569
 H        -3.666496         1.006957         2.822991
 H         0.125531         2.274300         2.571205
 H        -0.437760         0.573034         2.651086
 H         0.400340         0.265793        -0.715129
 H         0.810182         2.532852        -0.497538
 H        -0.692442         2.204070        -1.397778
 H        -0.499678         4.039454         1.144612
 H        -1.186756         4.376317        -0.440132
 H        -3.337736         3.585284         1.108072
 H        -3.011317         0.813487         0.160646
