19
Iteration:  2903
 O        -3.058838         1.872003         3.044977
 C        -2.199907         1.965696         1.927003
 C        -0.761368         1.350250         1.991282
 C        -0.751116         1.240490         0.426207
 O        -0.036683         0.036792         0.043482
 C        -0.194826         2.516600        -0.095322
 C        -1.100856         3.700832         0.321660
 C        -2.378895         2.980439         0.872432
 C        -2.385977         1.473118         0.587450
 H        -2.738980         2.467005         3.717883
 H         0.035164         1.952644         2.499106
 H        -0.753485         0.378482         2.428912
 H        -0.450936        -0.388194        -0.699207
 H         0.883328         2.592615         0.165651
 H        -0.207082         2.389808        -1.187716
 H        -0.664729         4.425204         1.070634
 H        -1.307673         4.426745        -0.497667
 H        -3.352501         3.488666         0.990654
 H        -3.214598         0.871654         0.091121
