19
Iteration:  2309
 O        -2.948033         2.041317         3.104947
 C        -2.138080         1.991553         1.989605
 C        -0.683662         1.316136         1.993325
 C        -0.728124         1.263107         0.500000
 O        -0.320229         0.003514        -0.114749
 C        -0.158145         2.580088        -0.023482
 C        -1.225785         3.693231         0.214223
 C        -2.383306         2.896805         0.842522
 C        -2.284658         1.421957         0.537883
 H        -2.794263         1.225659         3.541165
 H         0.167574         1.764371         2.510391
 H        -0.853356         0.277513         2.409321
 H         0.400342        -0.398249         0.441963
 H         0.652012         2.921808         0.610018
 H         0.313689         2.572507        -0.997606
 H        -0.950221         4.501850         0.861811
 H        -1.610969         4.153925        -0.695578
 H        -3.328101         3.495230         0.897223
 H        -3.066066         0.699820         0.281978
