19
Iteration:  2831
 O        -3.083584         1.827544         3.088450
 C        -2.115738         2.026044         2.032333
 C        -0.754089         1.517492         2.028931
 C        -0.762902         1.218834         0.473007
 O        -0.236088         0.034870        -0.103657
 C        -0.168939         2.437763        -0.115747
 C        -1.071028         3.649681         0.293774
 C        -2.332967         3.025869         0.907169
 C        -2.342751         1.488672         0.583457
 H        -3.092871         0.877745         2.944551
 H         0.142115         2.123833         2.351351
 H        -0.847662         0.519576         2.573862
 H         0.651503         0.070951         0.253077
 H         0.911165         2.458620         0.128571
 H        -0.229548         2.462566        -1.214457
 H        -0.656483         4.453465         0.906119
 H        -1.280677         4.216533        -0.655360
 H        -3.297514         3.618180         0.747011
 H        -3.189002         0.907698         0.138048
