19
Iteration:  4176charge 0 multiplicity 1
 O        -2.964996         1.917721         3.065023
 C        -2.224752         1.992931         1.967858
 C        -0.866247         1.233381         2.124897
 C        -0.715045         1.279026         0.577613
 O        -0.172651         0.035785        -0.058238
 C        -0.137343         2.544885         0.025087
 C        -1.174276         3.735101         0.282367
 C        -2.311471         2.906460         0.765063
 C        -2.256480         1.434672         0.504068
 H        -3.707416         2.504503         3.109919
 H        -0.043155         1.836380         2.676155
 H        -0.879983         0.131885         2.342733
 H         0.365981         0.402111        -0.809744
 H         0.897045         2.584098         0.232551
 H        -0.202210         2.494919        -1.113344
 H        -0.784000         4.336579         1.057103
 H        -1.409593         4.323203        -0.621650
 H        -3.300280         3.380739         0.504232
 H        -3.079835         1.103652        -0.078913
