19
Iteration:   474charge 0 multiplicity 1
 O        -3.080237         1.874107         2.998836
 C        -2.187524         1.983468         1.983211
 C        -0.883797         1.325744         1.940606
 C        -0.783448         1.231435         0.482810
 O        -0.017306         0.050400         0.213505
 C        -0.151735         2.517996        -0.060902
 C        -1.051096         3.617828         0.354573
 C        -2.304981         2.998213         0.812446
 C        -2.366450         1.538375         0.374465
 H        -3.277645         2.674400         3.556373
 H        -0.115864         1.619636         2.612671
 H        -1.165532         0.247853         2.117596
 H        -0.157870        -0.112345        -0.743327
 H         0.849885         2.603499         0.504849
 H         0.029312         2.386646        -1.164597
 H        -0.651031         4.183922         1.231013
 H        -1.342705         4.300888        -0.476237
 H        -3.222896         3.595820         0.708105
 H        -3.208316         1.026104        -0.023523
