19
Iteration:  1630charge 0 multiplicity 1
 O        -3.026577         1.870646         3.062489
 C        -2.226028         1.862011         1.917118
 C        -0.709615         1.533165         2.060776
 C        -0.766608         1.320183         0.490587
 O        -0.380539         0.044992         0.099629
 C        -0.146811         2.558766        -0.135826
 C        -0.985960         3.675036         0.359951
 C        -2.303376         2.898658         0.810900
 C        -2.265819         1.446500         0.435322
 H        -3.902840         1.339226         2.955678
 H         0.048321         2.242915         2.390693
 H        -0.679524         0.635055         2.825499
 H         0.556844        -0.211839         0.238324
 H         0.909009         2.515321         0.190682
 H        -0.236223         2.474585        -1.233903
 H        -0.633176         4.268913         1.185192
 H        -1.265811         4.335775        -0.464711
 H        -3.290975         3.342239         0.679290
 H        -2.724849         0.756710        -0.261723
