19
Iteration:  4227charge 0 multiplicity 1
 O        -3.078090         1.779911         3.026113
 C        -2.178787         1.966736         1.937475
 C        -0.727788         1.507439         2.044947
 C        -0.753710         1.225719         0.532123
 O        -0.252595        -0.041920        -0.057922
 C        -0.217768         2.544788        -0.134368
 C        -1.048857         3.737845         0.376757
 C        -2.320384         2.972398         0.862307
 C        -2.274109         1.429329         0.552587
 H        -3.755590         2.407493         2.887257
 H         0.146926         2.009045         2.343421
 H        -0.815960         0.542287         2.633212
 H         0.655339        -0.010457         0.253222
 H         0.846309         2.776347         0.318547
 H        -0.052243         2.659810        -1.168593
 H        -0.516762         4.339535         1.212935
 H        -1.200531         4.484036        -0.435916
 H        -3.301141         3.394204         0.769903
 H        -3.042396         0.844775        -0.007114
