19
Iteration:  3435
 O        -2.971227         1.991860         3.126815
 C        -2.209122         1.814587         1.930057
 C        -0.794735         1.282522         2.111866
 C        -0.705609         1.278430         0.492173
 O        -0.189783         0.018687         0.042204
 C        -0.097159         2.611828        -0.032687
 C        -1.225737         3.746018         0.166713
 C        -2.366218         2.830486         0.818764
 C        -2.281826         1.449383         0.480618
 H        -3.083172         2.942922         3.223670
 H         0.033814         1.837343         2.621692
 H        -0.839728         0.321503         2.526463
 H        -0.086542         0.196108        -0.935177
 H         0.685733         2.932036         0.624227
 H         0.253807         2.561914        -1.026402
 H        -0.796008         4.451577         0.886514
 H        -1.633710         4.105570        -0.815040
 H        -3.273066         3.361723         0.961529
 H        -3.095789         0.830859        -0.013706
