19
Iteration:   688
 O        -3.026167         1.835940         3.092916
 C        -2.234654         1.976267         1.956734
 C        -0.932673         1.318467         1.981565
 C        -0.773114         1.278339         0.510869
 O        -0.164366        -0.062881         0.138788
 C        -0.013421         2.588452        -0.008215
 C        -1.042883         3.733008         0.279464
 C        -2.282695         3.082753         0.819703
 C        -2.366726         1.540135         0.419253
 H        -3.531177         0.970630         2.938230
 H        -0.047145         1.870768         2.466227
 H        -1.005850         0.291240         2.358626
 H        -0.188492        -0.096336        -0.828665
 H         0.987594         2.743107         0.430278
 H         0.167652         2.366340        -1.131276
 H        -0.506331         4.332739         1.029336
 H        -1.227083         4.212167        -0.669363
 H        -3.294331         3.581633         0.777364
 H        -3.128874         1.031306        -0.215109
