19
Iteration:  3795charge 0 multiplicity 1
 O        -3.057909         1.932198         3.043830
 C        -2.214347         1.942022         1.976962
 C        -0.814395         1.322339         2.141304
 C        -0.674071         1.304269         0.514602
 O        -0.275749         0.129662        -0.151305
 C        -0.061311         2.596931         0.010667
 C        -1.138580         3.642133         0.169409
 C        -2.353588         2.897512         0.829125
 C        -2.235339         1.365824         0.592795
 H        -3.217566         2.820889         3.455000
 H         0.150089         1.702349         2.764824
 H        -1.001263         0.319668         2.508934
 H         0.431075        -0.395570         0.256904
 H         0.852803         2.889834         0.428753
 H         0.137454         2.313588        -1.016737
 H        -0.860097         4.538729         0.714237
 H        -1.408609         3.927313        -0.872357
 H        -3.415674         3.230250         0.742982
 H        -3.011822         0.691537         0.274264
