19
Iteration:  3017charge 0 multiplicity 1
 O        -2.971084         1.746212         3.218497
 C        -2.266233         1.980949         1.957885
 C        -0.819061         1.451664         2.106002
 C        -0.714738         1.290020         0.558281
 O        -0.079498         0.064203         0.031604
 C        -0.224056         2.453836        -0.178578
 C        -1.063488         3.697038         0.180030
 C        -2.379708         2.990761         0.812205
 C        -2.326760         1.504696         0.539273
 H        -3.778479         2.318741         3.400349
 H        -0.026088         1.969518         2.656248
 H        -0.984166         0.360503         2.437164
 H        -0.059243         0.038062        -0.910781
 H         0.864558         2.523918        -0.028237
 H        -0.204940         2.214647        -1.301644
 H        -0.447577         4.278412         0.890476
 H        -1.483442         4.388453        -0.552849
 H        -3.319761         3.284817         0.428946
 H        -2.794277         1.102580        -0.343411
