19
Iteration:  3342charge 0 multiplicity 1
 O        -2.992795         1.736760         3.086356
 C        -2.232440         1.869767         1.930528
 C        -0.743053         1.516682         2.139427
 C        -0.697699         1.378886         0.550187
 O        -0.222364        -0.031665         0.259647
 C        -0.239294         2.630618        -0.456041
 C        -0.995911         3.682228         0.323823
 C        -2.335575         2.982210         0.830047
 C        -2.303432         1.472181         0.481812
 H        -3.920931         2.051072         2.997470
 H        -0.027897         2.102881         2.738664
 H        -0.590427         0.444756         2.506219
 H        -0.394132        -0.326545        -0.650408
 H         0.878977         2.639900        -0.421152
 H        -0.674682         2.340403        -1.447613
 H        -0.385941         3.960164         1.214581
 H        -1.293052         4.497786        -0.295820
 H        -3.310384         3.509376         0.884182
 H        -2.841529         0.982079        -0.283071
