19
Iteration:  2456charge 0 multiplicity 1
 O        -2.942890         1.818060         3.074135
 C        -2.164128         2.088395         1.935041
 C        -0.724368         1.566299         2.032864
 C        -0.772819         1.217322         0.544939
 O        -0.252433        -0.006513         0.056904
 C        -0.162887         2.527145        -0.143043
 C        -1.112199         3.621164         0.321248
 C        -2.373478         2.981295         0.828795
 C        -2.329043         1.466018         0.482028
 H        -2.503669         0.991065         3.470838
 H         0.155418         2.127049         2.355223
 H        -0.794333         0.590151         2.411634
 H        -0.807426        -0.421953        -0.624994
 H         0.779717         2.551157         0.382939
 H        -0.091153         2.433634        -1.241728
 H        -0.769532         4.310871         1.167630
 H        -1.210922         4.237020        -0.601949
 H        -3.336448         3.518462         0.735457
 H        -3.205979         0.948429         0.192073
