19
Iteration:   676
 O        -3.158308         1.883429         3.077752
 C        -2.206538         1.989831         1.988916
 C        -0.834903         1.280858         2.069698
 C        -0.708641         1.289314         0.493827
 O        -0.200762        -0.015340         0.119576
 C         0.012249         2.499276        -0.081586
 C        -1.060054         3.725239         0.260296
 C        -2.309920         2.971280         0.896412
 C        -2.277858         1.636650         0.344870
 H        -3.261769         0.940256         3.267607
 H        -0.084237         1.688164         2.812731
 H        -0.848688         0.195306         2.135262
 H        -0.621495        -0.192718        -0.772136
 H         0.919210         2.831114         0.419487
 H         0.204122         2.460768        -1.225603
 H        -0.704456         4.522692         0.906771
 H        -1.470426         4.292544        -0.584130
 H        -3.330784         3.438291         0.852636
 H        -3.004427         1.107925        -0.266944
