19
Iteration:  4942
 O        -3.188739         1.927025         2.985233
 C        -2.159188         1.877283         2.032683
 C        -0.714684         1.446449         2.050147
 C        -0.776249         1.289753         0.468852
 O        -0.091337         0.046363         0.053099
 C        -0.175745         2.470773        -0.128807
 C        -1.053896         3.710987         0.297735
 C        -2.300759         2.913306         0.946347
 C        -2.395717         1.491758         0.470759
 H        -2.924409         1.152917         3.500691
 H         0.047703         2.067014         2.648982
 H        -0.702373         0.358072         2.251987
 H        -0.016586        -0.024284        -0.917681
 H         0.817255         2.673403         0.289914
 H        -0.075169         2.457443        -1.212868
 H        -0.673418         4.359649         1.143891
 H        -1.281274         4.432868        -0.492573
 H        -3.199928         3.482875         1.000244
 H        -3.177754         0.942491        -0.112624
