19
Iteration:  1708
 O        -3.256996         1.968501         2.972559
 C        -2.167655         1.871996         1.994182
 C        -0.682921         1.461428         2.167345
 C        -0.666988         1.372207         0.505590
 O        -0.348631        -0.026447         0.043457
 C        -0.137357         2.590606        -0.220135
 C        -1.066844         3.605572         0.299550
 C        -2.295747         2.901245         0.874714
 C        -2.178657         1.456323         0.508416
 H        -3.233450         1.103904         3.497909
 H        -0.087204         2.197675         2.756765
 H        -0.521912         0.412746         2.450115
 H         0.556038         0.048741        -0.382861
 H         0.894547         2.879630        -0.031984
 H        -0.201408         2.199583        -1.256277
 H        -0.427897         4.185190         0.962954
 H        -1.371882         4.317565        -0.440499
 H        -3.208724         3.474804         1.010562
 H        -2.945428         0.876120        -0.016523
