19
Iteration:   647charge 0 multiplicity 1
 O        -3.229129         1.959867         2.798900
 C        -2.147723         1.887002         2.006681
 C        -0.729466         1.377239         2.132492
 C        -0.716702         1.265429         0.622820
 O        -0.256393         0.059109        -0.052347
 C        -0.085749         2.480044        -0.040460
 C        -1.021931         3.742153         0.330191
 C        -2.237428         2.923841         0.911785
 C        -2.317188         1.439076         0.517818
 H        -2.872389         1.431884         3.497249
 H        -0.094012         2.086516         2.742062
 H        -0.529324         0.326939         2.441689
 H        -0.803339        -0.048929        -0.849980
 H         0.961307         2.739143         0.222909
 H        -0.042788         2.390671        -1.091432
 H        -0.602200         4.498826         1.096945
 H        -1.361821         4.447670        -0.428153
 H        -3.211290         3.455700         0.965215
 H        -3.182745         0.869520         0.040475
