19
Iteration:  4945
 O        -3.187779         1.942969         2.994057
 C        -2.178803         1.862844         2.005154
 C        -0.721613         1.437327         2.075047
 C        -0.764746         1.277201         0.442552
 O        -0.084700         0.043544         0.041604
 C        -0.200479         2.492581        -0.144423
 C        -1.048035         3.710115         0.330420
 C        -2.291204         2.913803         0.935011
 C        -2.358987         1.514219         0.481026
 H        -3.061706         1.099465         3.604739
 H        -0.043134         2.162494         2.693755
 H        -0.682701         0.411010         2.339832
 H        -0.051107        -0.051384        -0.952938
 H         0.853186         2.698323         0.251641
 H        -0.190877         2.273522        -1.217994
 H        -0.602091         4.240145         1.117469
 H        -1.336491         4.427191        -0.486902
 H        -3.262292         3.458315         0.980896
 H        -3.076760         0.882280        -0.034069
