19
Iteration:  3294
 O        -3.019158         1.790660         3.054415
 C        -2.115839         1.901874         1.982275
 C        -0.728293         1.569246         2.105586
 C        -0.725688         1.262809         0.496294
 O        -0.209784         0.048306         0.059138
 C        -0.073412         2.441809        -0.138942
 C        -1.164461         3.638610         0.237095
 C        -2.340953         2.964281         0.839024
 C        -2.371792         1.495218         0.555275
 H        -3.862296         2.071430         2.697918
 H        -0.067088         2.456963         2.330980
 H        -0.455725         0.808657         2.787790
 H        -0.687179        -0.256532        -0.757579
 H         0.898972         2.774824         0.267397
 H        -0.086166         2.412797        -1.279175
 H        -0.514360         4.182880         0.937429
 H        -1.403726         4.257706        -0.655772
 H        -3.207191         3.550252         1.137923
 H        -3.277800         0.900902         0.167225
