19
Iteration:  4662charge 0 multiplicity 1
 O        -3.101349         1.938314         3.096005
 C        -2.260322         1.856623         1.894478
 C        -0.781967         1.501659         2.121649
 C        -0.678797         1.273457         0.539484
 O        -0.281393         0.053785         0.062677
 C        -0.119625         2.486292        -0.215335
 C        -1.074389         3.665372         0.411789
 C        -2.337674         2.901122         0.832825
 C        -2.185249         1.470343         0.408516
 H        -2.860349         1.083198         3.490752
 H        -0.080797         2.175789         2.657933
 H        -0.831463         0.427759         2.471377
 H         0.168757         0.240726        -0.805923
 H         0.868135         2.824937        -0.228929
 H        -0.436339         2.437631        -1.237003
 H        -0.579052         4.152196         1.251228
 H        -1.283814         4.513701        -0.252943
 H        -3.223727         3.451882         0.626630
 H        -2.944632         0.839092        -0.063887
