19
Iteration:  3543charge 0 multiplicity 1
 O        -3.043155         1.603291         2.950218
 C        -2.155555         2.009765         1.957837
 C        -0.654846         1.557586         2.004952
 C        -0.688835         1.301016         0.470093
 O        -0.243795        -0.033451         0.251406
 C        -0.189564         2.429328        -0.247275
 C        -1.078832         3.660838         0.363668
 C        -2.375369         3.074959         0.779830
 C        -2.409680         1.555843         0.556358
 H        -3.148336         2.306348         3.544184
 H        -0.035727         2.414302         2.389539
 H        -0.515105         0.730456         2.674494
 H         0.296849         0.015906        -0.581155
 H         0.900138         2.537043        -0.085450
 H        -0.458635         2.448470        -1.405722
 H        -0.555282         4.088834         1.215073
 H        -1.210627         4.520990        -0.325002
 H        -3.309572         3.570448         0.699096
 H        -3.321256         1.039624         0.388783
