19
Iteration:  4332
 O        -3.116465         1.899863         3.049524
 C        -2.218172         1.979084         1.998302
 C        -0.788330         1.380524         2.124531
 C        -0.682391         1.350228         0.591462
 O        -0.280264         0.012907        -0.062480
 C        -0.134540         2.602249        -0.100847
 C        -1.052251         3.678231         0.312745
 C        -2.313164         2.912534         0.700813
 C        -2.282854         1.406495         0.527892
 H        -2.710812         1.219043         3.610834
 H        -0.062708         1.910159         2.838350
 H        -0.841894         0.399630         2.461402
 H         0.595473         0.093241        -0.417095
 H         0.841095         2.857770         0.146597
 H        -0.366481         2.449666        -1.201041
 H        -0.681283         4.156406         1.196444
 H        -1.291549         4.380393        -0.475076
 H        -3.243273         3.431786         0.658298
 H        -2.818519         0.667277        -0.109368
