19
Iteration:  2212
 O        -3.013020         1.757716         3.063794
 C        -2.125446         2.040846         1.948373
 C        -0.675216         1.587032         2.012084
 C        -0.801083         1.235139         0.512284
 O        -0.226729        -0.017132         0.188962
 C        -0.248547         2.467474        -0.290757
 C        -1.009322         3.679284         0.460361
 C        -2.386944         3.021784         0.785709
 C        -2.339906         1.518783         0.449566
 H        -2.578269         1.118293         3.596479
 H         0.088512         2.182207         2.427702
 H        -0.601042         0.587227         2.455959
 H        -0.726494        -0.408816        -0.591072
 H         0.828833         2.464329        -0.310542
 H        -0.532453         2.442820        -1.371534
 H        -0.541975         4.081122         1.392225
 H        -1.145463         4.524395        -0.265662
 H        -3.456030         3.328335         0.679104
 H        -3.039855         1.106894        -0.216994
