19
Iteration:  2928charge 0 multiplicity 1
 O        -3.085661         1.747735         2.990220
 C        -2.164521         2.073178         1.976398
 C        -0.751959         1.424443         2.091609
 C        -0.824549         1.275993         0.527391
 O        -0.102294         0.155213         0.073468
 C        -0.248151         2.431412        -0.224967
 C        -1.055441         3.620508         0.256071
 C        -2.286521         2.984860         0.842853
 C        -2.340913         1.550224         0.581377
 H        -2.587693         1.174294         3.652677
 H         0.046213         2.034284         2.570059
 H        -0.699625         0.491046         2.693261
 H        -0.591482        -0.354883        -0.556071
 H         0.847283         2.555244        -0.028987
 H        -0.367782         2.132104        -1.315588
 H        -0.621266         4.193824         1.099316
 H        -1.190936         4.509631        -0.391914
 H        -3.290809         3.520379         0.846723
 H        -3.050351         0.854373         0.164527
