19
Iteration:  4736charge 0 multiplicity 1
 O        -3.128794         1.928261         3.067252
 C        -2.166342         1.887992         2.004905
 C        -0.795355         1.229076         2.152094
 C        -0.656290         1.296636         0.615728
 O        -0.248404         0.157509        -0.007594
 C        -0.090449         2.562128        -0.126561
 C        -1.107606         3.693525         0.138652
 C        -2.283449         2.884940         0.874237
 C        -2.230789         1.514986         0.547548
 H        -3.587798         1.127405         3.136342
 H        -0.018183         1.831509         2.577258
 H        -0.962275         0.334098         2.572785
 H        -0.469713         0.317582        -0.922043
 H         0.936780         2.897784         0.260562
 H         0.036868         2.403764        -1.165853
 H        -0.670379         4.496372         0.609908
 H        -1.622354         4.114416        -0.767956
 H        -3.223208         3.332714         0.539544
 H        -2.994891         0.824221         0.100038
