19
Iteration:  4722charge 0 multiplicity 1
 O        -3.094014         2.003030         3.052801
 C        -2.176141         1.899994         2.015267
 C        -0.797024         1.270038         2.150164
 C        -0.736835         1.287672         0.520567
 O        -0.142379         0.089875        -0.017446
 C        -0.100711         2.583464        -0.058871
 C        -1.179166         3.681852         0.166837
 C        -2.271979         2.970142         0.855072
 C        -2.266155         1.434696         0.523537
 H        -3.434597         1.040022         3.201898
 H        -0.089274         1.542880         2.931778
 H        -0.815901         0.178578         2.320859
 H        -0.470594        -0.019056        -0.939274
 H         0.878646         2.785438         0.401721
 H         0.053824         2.374145        -1.159249
 H        -0.808008         4.472545         0.893707
 H        -1.537433         3.991160        -0.825930
 H        -3.275592         3.412912         1.113887
 H        -2.955111         1.090018        -0.207527
