19
Iteration:  3698
 O        -3.158454         1.717373         2.796607
 C        -2.058886         2.053602         2.012921
 C        -0.648591         1.516368         2.093453
 C        -0.709985         1.288155         0.532468
 O        -0.229312        -0.000997         0.193653
 C        -0.296200         2.505397        -0.295830
 C        -1.048825         3.654665         0.355217
 C        -2.383051         2.990027         0.888616
 C        -2.254074         1.469922         0.624136
 H        -3.311410         2.239677         3.661547
 H         0.204589         2.135320         2.446935
 H        -0.484453         0.573067         2.440591
 H         0.211725        -0.320528        -0.590204
 H         0.752948         2.696058        -0.436212
 H        -0.673471         2.424332        -1.354195
 H        -0.400028         4.191299         1.010368
 H        -1.394636         4.378445        -0.364869
 H        -3.385534         3.510322         0.937822
 H        -3.100991         0.843499         0.238236
