19
Iteration:  2808
 O        -3.145396         1.794706         3.051774
 C        -2.141334         1.829902         2.016553
 C        -0.681528         1.415733         2.066983
 C        -0.726730         1.333338         0.491671
 O        -0.299978         0.062599         0.042823
 C        -0.198152         2.519179        -0.308797
 C        -1.064469         3.679633         0.240115
 C        -2.258628         3.020996         0.980505
 C        -2.339721         1.539438         0.484307
 H        -2.723585         1.237792         3.734289
 H        -0.001712         2.219053         2.481493
 H        -0.527452         0.425763         2.562598
 H         0.221288        -0.345498         0.768329
 H         0.865382         2.725863        -0.041429
 H        -0.244928         2.400771        -1.404716
 H        -0.452035         4.292496         0.928580
 H        -1.289934         4.443614        -0.504856
 H        -3.249904         3.535234         0.875424
 H        -3.133485         1.166628        -0.210271
