19
Iteration:  4242charge 0 multiplicity 1
 O        -3.060847         1.664066         2.943677
 C        -2.119394         2.044840         1.955477
 C        -0.696075         1.469810         2.179443
 C        -0.703985         1.262628         0.542103
 O        -0.317880         0.011239        -0.032013
 C        -0.121715         2.555598        -0.181906
 C        -1.056659         3.708065         0.384241
 C        -2.386906         2.985420         0.800753
 C        -2.280248         1.520506         0.518939
 H        -3.723885         2.403008         3.170130
 H        -0.105328         2.301988         2.614895
 H        -0.732628         0.487492         2.666815
 H         0.488033        -0.340428         0.355883
 H         0.969467         2.600199        -0.162546
 H        -0.598084         2.216145        -1.170263
 H        -0.658693         4.097965         1.292890
 H        -1.352991         4.427444        -0.408530
 H        -3.371723         3.509836         0.647220
 H        -3.051566         0.800764         0.373260
