19
Iteration:  2154charge 0 multiplicity 1
 O        -3.114251         2.055375         2.936311
 C        -2.016609         1.972431         2.026261
 C        -0.675487         1.294693         2.057470
 C        -0.709107         1.228479         0.545585
 O        -0.263955         0.044143        -0.174364
 C        -0.195480         2.540546        -0.046542
 C        -1.163923         3.645762         0.212617
 C        -2.343986         2.961896         0.954440
 C        -2.267014         1.492987         0.616932
 H        -3.214811         1.177789         3.457136
 H         0.107918         1.796696         2.584766
 H        -0.696917         0.246207         2.454338
 H         0.139385        -0.567538         0.424559
 H         0.756824         2.930781         0.364198
 H        -0.121498         2.372300        -1.103694
 H        -0.875445         4.462310         0.855313
 H        -1.664518         4.148921        -0.655913
 H        -3.373850         3.280114         1.043209
 H        -3.123812         0.809602         0.333865
