19
Iteration:  4592charge 0 multiplicity 1
 O        -3.130918         1.809227         3.084257
 C        -2.194537         1.936666         1.948206
 C        -0.736919         1.454061         2.138227
 C        -0.702415         1.312214         0.568543
 O        -0.312532         0.007870        -0.012504
 C        -0.163961         2.503860        -0.221214
 C        -1.060643         3.746573         0.277519
 C        -2.267693         2.984514         0.894772
 C        -2.212109         1.481055         0.494928
 H        -3.479755         0.941895         2.984140
 H        -0.143980         2.255681         2.596058
 H        -0.723858         0.459101         2.564568
 H         0.683938        -0.119523        -0.018700
 H         0.913342         2.710105         0.059455
 H        -0.290546         2.288186        -1.260601
 H        -0.619624         4.400766         0.979599
 H        -1.420030         4.427113        -0.542418
 H        -3.335038         3.476139         0.662676
 H        -3.012684         0.938567        -0.017578
