19
Iteration:  4254charge 0 multiplicity 1
 O        -3.110305         1.600606         2.936769
 C        -2.124836         1.982526         1.964340
 C        -0.724664         1.515363         2.141896
 C        -0.629105         1.342487         0.578039
 O        -0.398826         0.099130         0.030975
 C        -0.189484         2.482720        -0.237356
 C        -1.068677         3.636866         0.350276
 C        -2.307803         2.983000         0.775720
 C        -2.218632         1.526333         0.558180
 H        -3.405498         2.394459         3.312947
 H         0.167417         1.999741         2.689824
 H        -0.827100         0.615310         2.711447
 H         0.309355        -0.301657         0.549030
 H         0.814047         2.803568        -0.279330
 H        -0.427333         2.452966        -1.364253
 H        -0.637304         4.201498         1.139511
 H        -1.101886         4.455054        -0.377754
 H        -3.259860         3.538387         0.909581
 H        -2.912116         0.881614         0.008349
