19
Iteration:  2931charge 0 multiplicity 1
 O        -3.087181         1.747122         2.991047
 C        -2.173091         2.040675         1.990187
 C        -0.772513         1.449346         2.109115
 C        -0.779292         1.300748         0.505361
 O        -0.126752         0.133195         0.076177
 C        -0.239354         2.433603        -0.226575
 C        -1.039555         3.635454         0.232927
 C        -2.314071         3.013682         0.842416
 C        -2.310972         1.528573         0.604711
 H        -2.633154         1.123116         3.501167
 H         0.018590         2.055552         2.595995
 H        -0.637761         0.471991         2.691393
 H        -0.605884        -0.398949        -0.586761
 H         0.827137         2.515579        -0.065188
 H        -0.448803         2.137719        -1.287416
 H        -0.552958         4.127148         1.065661
 H        -1.318875         4.540065        -0.330453
 H        -3.250840         3.486729         0.914883
 H        -3.006423         0.916483         0.090280
