19
Iteration:  2077charge 0 multiplicity 1
 O        -3.053984         1.742378         3.061594
 C        -2.156739         1.950759         1.955958
 C        -0.685783         1.516660         2.013116
 C        -0.733131         1.275838         0.486347
 O        -0.254230        -0.038424         0.153893
 C        -0.186061         2.499396        -0.178832
 C        -1.105757         3.705725         0.278302
 C        -2.299117         2.977084         0.828031
 C        -2.342289         1.500807         0.550236
 H        -3.449634         2.533411         3.404805
 H         0.148916         2.080459         2.320624
 H        -0.548143         0.479675         2.379018
 H         0.010489        -0.031364        -0.795930
 H         0.841663         2.823190         0.119939
 H        -0.193991         2.524466        -1.255263
 H        -0.684380         4.226011         1.137568
 H        -1.136247         4.524289        -0.481303
 H        -3.315215         3.361563         0.729397
 H        -3.215462         0.964999         0.166605
