19
Iteration:  1539charge 0 multiplicity 1
 O        -3.133747         1.957492         3.018181
 C        -2.153138         1.942460         2.010001
 C        -0.791815         1.344158         2.060880
 C        -0.716457         1.280735         0.494103
 O        -0.253201        -0.013013         0.010509
 C        -0.088881         2.532505        -0.023638
 C        -1.138257         3.762418         0.226306
 C        -2.327212         2.902723         0.871157
 C        -2.280199         1.496650         0.499957
 H        -2.723305         1.464726         3.779719
 H         0.078849         1.872668         2.440136
 H        -0.856526         0.306870         2.561432
 H         0.672327         0.139790        -0.346952
 H         0.968809         2.377976         0.347178
 H        -0.044431         2.421076        -1.109125
 H        -0.727734         4.580774         0.827627
 H        -1.431073         4.157908        -0.787075
 H        -3.304535         3.276882         0.571712
 H        -3.078526         1.031714        -0.044161
