19
Iteration:  2569charge 0 multiplicity 1
 O        -3.081376         1.878437         3.200435
 C        -2.211957         1.876289         2.030088
 C        -0.692623         1.602925         2.003128
 C        -0.742395         1.259122         0.484447
 O        -0.338715         0.054246        -0.052982
 C        -0.126473         2.515840        -0.259674
 C        -1.011136         3.645625         0.331615
 C        -2.314525         2.927977         0.874210
 C        -2.313029         1.433266         0.481525
 H        -2.935150         0.964682         3.540854
 H        -0.152212         2.459420         2.246564
 H        -0.457261         0.679784         2.538913
 H        -0.303083        -0.556603         0.681143
 H         0.932244         2.644675         0.041013
 H        -0.257158         2.558027        -1.354748
 H        -0.447423         4.166338         1.123822
 H        -1.193478         4.323772        -0.550272
 H        -3.128752         3.596660         0.662519
 H        -2.976614         0.988050        -0.269572
