19
Iteration:  2441
 O        -2.987651         1.804350         3.018241
 C        -2.105066         1.944374         1.977828
 C        -0.726411         1.462141         1.953117
 C        -0.755905         1.325853         0.402482
 O        -0.277568        -0.038708         0.266740
 C        -0.123758         2.507004        -0.264767
 C        -1.122488         3.726140         0.325805
 C        -2.376169         2.996983         0.866843
 C        -2.316079         1.555626         0.564214
 H        -2.827857         0.934350         3.365354
 H         0.032683         2.093165         2.500968
 H        -0.664099         0.481039         2.511646
 H        -0.709523        -0.371459        -0.582979
 H         0.938624         2.737408        -0.121897
 H        -0.333704         2.469297        -1.354208
 H        -0.515576         4.266398         1.014728
 H        -1.494597         4.438247        -0.377556
 H        -3.338763         3.460705         0.818023
 H        -3.109098         0.903844         0.130889
