19
Iteration:  3762charge 0 multiplicity 1
 O        -3.025524         1.813621         3.029563
 C        -2.190310         1.964123         1.981868
 C        -0.743249         1.376231         2.025439
 C        -0.792038         1.233637         0.454093
 O        -0.089678         0.065248         0.095154
 C        -0.165172         2.544002        -0.048862
 C        -1.128169         3.716129         0.238177
 C        -2.361741         2.913155         0.850463
 C        -2.333687         1.502076         0.460824
 H        -3.116927         2.746292         3.476819
 H         0.221107         1.954951         2.428323
 H        -0.545981         0.439971         2.501857
 H        -0.849734        -0.586449         0.193532
 H         0.770851         2.818074         0.334102
 H        -0.076801         2.412510        -1.124419
 H        -0.549022         4.431554         0.804250
 H        -1.432512         4.254928        -0.683754
 H        -3.388556         3.427449         0.837002
 H        -3.189533         0.919067         0.054842
