19
Iteration:  2592
 O        -3.044153         1.887255         2.886897
 C        -2.030705         1.912450         1.973423
 C        -0.591474         1.534368         2.057257
 C        -0.732089         1.291922         0.492060
 O        -0.400933        -0.087674         0.041050
 C        -0.271318         2.557613        -0.293698
 C        -1.085284         3.714089         0.459643
 C        -2.339194         2.952560         0.924507
 C        -2.304513         1.500341         0.529596
 H        -2.915477         1.080247         3.384690
 H         0.022752         2.304636         2.379864
 H        -0.473133         0.558703         2.581558
 H         0.053127        -0.387837         0.847151
 H         0.806373         2.703876        -0.166518
 H        -0.546444         2.313908        -1.332563
 H        -0.476795         4.076292         1.288717
 H        -1.308438         4.528711        -0.262517
 H        -3.265960         3.481321         0.825018
 H        -3.104048         0.867156         0.246318
