19
Iteration:  4742charge 0 multiplicity 1
 O        -3.130435         1.907211         3.050878
 C        -2.178750         1.897237         2.040062
 C        -0.794189         1.275967         2.127436
 C        -0.683511         1.281456         0.623624
 O        -0.271421         0.143665        -0.006400
 C        -0.058129         2.554295        -0.113864
 C        -1.082675         3.695476         0.143291
 C        -2.327139         2.951130         0.859954
 C        -2.221063         1.489691         0.539142
 H        -3.538237         1.011318         2.952413
 H         0.066405         1.859496         2.574466
 H        -0.717074         0.231075         2.730199
 H        -0.411148         0.403171        -0.959513
 H         0.887925         2.988145         0.131378
 H        -0.038113         2.393082        -1.251135
 H        -0.458001         4.501328         0.718855
 H        -1.561293         3.946633        -0.794846
 H        -3.384514         3.289408         0.730366
 H        -2.848881         0.704860         0.193955
