19
Iteration:  4759charge 0 multiplicity 1
 O        -3.145036         1.834080         2.978418
 C        -2.114061         1.949581         1.975639
 C        -0.664917         1.461752         2.146880
 C        -0.704858         1.314947         0.527431
 O        -0.268306         0.010579         0.000930
 C        -0.122921         2.502164        -0.071239
 C        -1.135620         3.684684         0.228155
 C        -2.310617         2.962834         0.860240
 C        -2.292849         1.511991         0.595570
 H        -3.509411         0.886966         2.965184
 H         0.068044         2.042541         2.675613
 H        -0.821249         0.471421         2.514806
 H        -0.052693         0.125914        -0.970431
 H         0.930277         2.539195         0.359076
 H        -0.045372         2.450808        -1.149561
 H        -0.779230         4.377791         0.940701
 H        -1.413380         4.212810        -0.724800
 H        -3.137698         3.645160         0.973588
 H        -3.055287         0.957198        -0.036951
