19
Iteration:   510
 O        -3.068938         1.883478         2.944254
 C        -2.245476         1.865925         1.923152
 C        -0.828803         1.481652         2.165549
 C        -0.688204         1.291628         0.614947
 O        -0.299192        -0.040747        -0.009128
 C        -0.076848         2.592807        -0.029412
 C        -1.071193         3.671995         0.345601
 C        -2.233751         2.868803         0.817118
 C        -2.241138         1.458752         0.493916
 H        -3.744255         2.597113         2.732941
 H        -0.090774         2.114389         2.655240
 H        -0.694911         0.394602         2.522575
 H        -0.537228         0.131041        -0.934559
 H         0.852975         2.968336         0.439462
 H         0.194806         2.411847        -1.107033
 H        -0.595919         4.372850         1.004320
 H        -1.374391         4.358178        -0.491590
 H        -3.143154         3.455482         0.712294
 H        -2.929285         0.800149        -0.097092
