19
Iteration:  4266
 O        -3.160875         1.613216         2.920241
 C        -2.206616         1.890522         1.992559
 C        -0.662166         1.515255         2.103108
 C        -0.734743         1.364190         0.579634
 O        -0.394349         0.074662         0.087704
 C        -0.189924         2.584332        -0.282750
 C        -0.973999         3.719989         0.275540
 C        -2.300740         2.978163         0.884251
 C        -2.184107         1.499055         0.554515
 H        -3.151766         2.293201         3.663611
 H         0.111585         2.209375         2.640616
 H        -0.631861         0.489011         2.345913
 H         0.313286        -0.411778         0.603851
 H         0.821745         2.635767        -0.075434
 H        -0.386998         2.197901        -1.326377
 H        -0.342859         4.117749         1.014609
 H        -1.364948         4.396148        -0.459796
 H        -3.280553         3.441173         0.710856
 H        -2.766229         0.881005        -0.167808
