19
Iteration:    67charge 0 multiplicity 1
 O        -3.197444         1.951660         2.832658
 C        -2.171331         1.931534         1.979649
 C        -0.706417         1.484802         2.173747
 C        -0.651800         1.293395         0.564193
 O        -0.118630         0.041021         0.086572
 C        -0.201202         2.548343        -0.258227
 C        -1.143882         3.593609         0.263906
 C        -2.383820         2.939301         0.871721
 C        -2.186212         1.439682         0.592963
 H        -2.949299         1.318662         3.574729
 H        -0.137259         2.118926         2.639734
 H        -0.732645         0.515508         2.659795
 H        -0.485181        -0.624287         0.727172
 H         0.863100         2.782563        -0.128947
 H        -0.289275         2.382243        -1.367087
 H        -0.635517         4.286974         0.937478
 H        -1.473863         4.217154        -0.552106
 H        -3.410645         3.420056         0.900010
 H        -2.931798         0.816637         0.001135
