19
Iteration:  4252charge 0 multiplicity 1
 O        -3.105007         1.601205         2.941796
 C        -2.102087         2.004488         1.952804
 C        -0.726293         1.506687         2.156200
 C        -0.618371         1.335724         0.565904
 O        -0.391500         0.091021         0.019332
 C        -0.179303         2.470161        -0.225849
 C        -1.082209         3.637541         0.359295
 C        -2.314650         2.985328         0.770851
 C        -2.237732         1.529606         0.552674
 H        -3.475711         2.437730         3.291688
 H         0.080396         2.045963         2.653320
 H        -0.835938         0.574794         2.758130
 H         0.315799        -0.265134         0.535361
 H         0.879249         2.811021        -0.331378
 H        -0.450571         2.458498        -1.314448
 H        -0.688041         4.198748         1.229914
 H        -1.124690         4.470965        -0.397752
 H        -3.274492         3.544584         0.884965
 H        -2.937116         0.880129         0.085237
