19
Iteration:  1491
 O        -3.187692         1.954190         3.053899
 C        -2.247132         1.896676         1.934906
 C        -0.709079         1.584733         2.046537
 C        -0.715900         1.224707         0.543226
 O        -0.276877        -0.020845         0.059012
 C        -0.233754         2.505109        -0.208009
 C        -0.978302         3.626305         0.449858
 C        -2.250416         2.935276         0.851804
 C        -2.231390         1.432456         0.471527
 H        -3.238902         1.016412         3.130955
 H         0.015522         2.405767         2.362086
 H        -0.420845         0.696981         2.503327
 H         0.507768         0.105817        -0.458994
 H         0.818710         2.712906        -0.279534
 H        -0.634191         2.557180        -1.254049
 H        -0.597419         4.135033         1.380486
 H        -1.161174         4.411163        -0.286268
 H        -3.256124         3.400675         0.793449
 H        -2.796323         1.037090        -0.404930
