19
Iteration:  1471charge 0 multiplicity 1
 O        -3.227134         1.879030         3.012364
 C        -2.192682         1.911737         2.058346
 C        -0.697345         1.450583         2.084378
 C        -0.747768         1.247362         0.493335
 O        -0.182427         0.001865         0.066791
 C        -0.194370         2.454664        -0.355857
 C        -0.969262         3.679028         0.330580
 C        -2.305267         3.031602         0.923739
 C        -2.294561         1.548986         0.535683
 H        -3.772618         1.024068         2.994999
 H        -0.014293         2.222113         2.579777
 H        -0.609091         0.517074         2.637373
 H         0.768835         0.105712        -0.073587
 H         0.896035         2.676469        -0.279654
 H        -0.350779         2.211493        -1.433234
 H        -0.320471         4.183047         1.111308
 H        -1.319107         4.501217        -0.324238
 H        -3.314496         3.453310         0.865686
 H        -3.179726         1.002643         0.178014
