19
Iteration:  1197charge 0 multiplicity 1
 O        -3.076266         2.124559         2.991681
 C        -2.227847         1.871057         1.915955
 C        -0.718867         1.289217         2.168696
 C        -0.730048         1.253430         0.568521
 O        -0.163339         0.109540        -0.088569
 C        -0.231693         2.547079        -0.152722
 C        -1.046916         3.640975         0.345519
 C        -2.333407         2.951234         0.840432
 C        -2.284832         1.418115         0.526713
 H        -3.622144         1.362776         2.936925
 H         0.182172         1.729728         2.789019
 H        -0.782617         0.206577         2.412156
 H         0.039716        -0.518987         0.659087
 H         0.813150         2.592871         0.159158
 H        -0.406589         2.395866        -1.234383
 H        -0.636444         4.161644         1.226383
 H        -1.153111         4.344176        -0.450059
 H        -3.342572         3.405313         1.021791
 H        -2.951261         0.815319        -0.172152
