19
Iteration:  3715charge 0 multiplicity 1
 O        -3.231412         1.705025         2.902606
 C        -2.162249         1.951171         1.976475
 C        -0.593435         1.585579         2.085520
 C        -0.692750         1.306970         0.604424
 O        -0.238537         0.014454         0.142790
 C        -0.321091         2.488280        -0.337085
 C        -1.015150         3.689563         0.352023
 C        -2.276995         2.979448         0.807463
 C        -2.206067         1.446032         0.624404
 H        -3.154699         2.346628         3.656655
 H         0.160180         2.270733         2.551008
 H        -0.509309         0.659148         2.826174
 H        -0.400223         0.128131        -0.799247
 H         0.805169         2.537049        -0.507197
 H        -0.880549         2.204047        -1.242956
 H        -0.571979         4.113854         1.324505
 H        -1.117341         4.552290        -0.363559
 H        -3.281957         3.425969         0.675989
 H        -2.897456         0.754871         0.158312
