19
Iteration:   292charge 0 multiplicity 1
 O        -3.223587         1.907876         3.078405
 C        -2.209165         1.922283         1.934570
 C        -0.739001         1.443793         2.139081
 C        -0.631044         1.275986         0.576585
 O        -0.197170         0.118311        -0.054471
 C        -0.123467         2.532907        -0.108095
 C        -1.014348         3.646992         0.350221
 C        -2.288959         2.895255         0.744466
 C        -2.225030         1.407305         0.507492
 H        -3.987708         2.444128         2.743584
 H        -0.104412         2.090830         2.788960
 H        -0.718070         0.404740         2.559845
 H        -0.874060        -0.551540         0.019920
 H         0.904056         2.550877         0.261124
 H        -0.040893         2.435046        -1.183945
 H        -0.628670         4.305511         1.190898
 H        -1.295429         4.048026        -0.672836
 H        -3.312140         3.293562         0.627503
 H        -3.009266         0.946238        -0.085238
