19
Iteration:   622
 O        -3.271769         1.968471         2.889731
 C        -2.196283         2.014822         2.010811
 C        -0.719560         1.426963         2.075605
 C        -0.725741         1.219144         0.495755
 O        -0.223420         0.013448        -0.043789
 C        -0.107621         2.512646        -0.080519
 C        -0.972483         3.558817         0.475892
 C        -2.339759         3.009246         0.837369
 C        -2.235064         1.431045         0.578948
 H        -3.042481         1.241615         3.465603
 H         0.120275         2.139154         2.415177
 H        -0.653278         0.556817         2.639083
 H        -0.380255        -0.129287        -1.015745
 H         0.877254         2.857650         0.099399
 H        -0.199724         2.689968        -1.193395
 H        -0.577057         4.069094         1.371040
 H        -1.106293         4.371352        -0.225470
 H        -3.301571         3.503388         0.568546
 H        -2.841518         0.796464        -0.022625
