19
Iteration:  1979
 O        -2.960419         1.943611         3.034547
 C        -2.151117         2.014769         1.925006
 C        -0.743061         1.365951         1.996609
 C        -0.820303         1.197332         0.508839
 O        -0.249662        -0.016964         0.042997
 C        -0.100242         2.658620        -0.025812
 C        -1.114153         3.749626         0.266641
 C        -2.388541         2.897149         0.818101
 C        -2.344190         1.419494         0.439987
 H        -2.875855         1.054832         3.403390
 H        -0.059051         2.106477         2.429639
 H        -0.799052         0.470833         2.737193
 H         0.184311        -0.512867         0.753898
 H         0.973384         2.796184         0.284357
 H        -0.109206         2.506248        -1.104819
 H        -0.734285         4.455992         1.048394
 H        -1.308287         4.380391        -0.668855
 H        -3.394736         3.327402         0.949546
 H        -3.156987         0.835911         0.127451
