19
Iteration:  2617charge 0 multiplicity 1
 O        -3.113738         1.867272         3.006710
 C        -2.064302         1.974647         2.031310
 C        -0.649530         1.385428         2.036799
 C        -0.721444         1.336899         0.519701
 O        -0.358650        -0.023274         0.080201
 C        -0.273655         2.521653        -0.339688
 C        -1.046942         3.728943         0.332410
 C        -2.319422         2.981361         0.889295
 C        -2.249755         1.522212         0.612834
 H        -3.353984         0.891851         2.920089
 H         0.226636         1.923349         2.456575
 H        -0.775871         0.337735         2.345903
 H         0.629777         0.100831         0.140453
 H         0.808743         2.598745        -0.351521
 H        -0.627689         2.087263        -1.291419
 H        -0.464390         4.246869         1.090220
 H        -1.281598         4.412283        -0.467561
 H        -3.321229         3.538480         1.019120
 H        -2.966903         0.829908         0.123049
