19
Iteration:  3988charge 0 multiplicity 1
 O        -3.089605         1.982411         3.088969
 C        -2.166836         1.963583         1.984661
 C        -0.773775         1.393134         2.012821
 C        -0.725980         1.186352         0.412577
 O        -0.147823         0.052235        -0.136155
 C        -0.087703         2.489860         0.139933
 C        -1.181876         3.675989         0.302334
 C        -2.361452         2.914933         0.801086
 C        -2.331707         1.372085         0.536804
 H        -3.422264         2.799860         3.350732
 H        -0.089299         2.085203         2.606518
 H        -0.947820         0.312229         2.495961
 H         0.630579         0.421857        -0.547539
 H         0.825632         2.789394         0.754517
 H         0.312225         2.379244        -0.914116
 H        -0.635568         4.325495         1.000159
 H        -1.337960         4.167962        -0.653766
 H        -3.361242         3.196620         0.597854
 H        -3.204590         0.887524         0.141515
