19
Iteration:  1854charge 0 multiplicity 1
 O        -3.047230         1.809701         3.108135
 C        -2.200029         1.877812         1.870733
 C        -0.770944         1.626485         2.055674
 C        -0.674579         1.335694         0.468016
 O        -0.267105        -0.088146         0.178421
 C        -0.163717         2.559220        -0.229176
 C        -1.005022         3.652257         0.452965
 C        -2.350270         2.981869         0.753510
 C        -2.256088         1.507067         0.417303
 H        -3.179772         0.831953         3.189894
 H        -0.155085         2.512825         2.474427
 H        -0.536630         0.673615         2.419397
 H        -0.987328        -0.648859        -0.102852
 H         0.917805         2.701028        -0.143876
 H        -0.469954         2.588177        -1.303049
 H        -0.507027         4.195508         1.296231
 H        -1.312969         4.364242        -0.308642
 H        -3.215059         3.636210         0.880632
 H        -3.050151         0.992583        -0.087329
