19
Iteration:  2813
 O        -3.117622         1.785406         3.052993
 C        -2.215538         1.898064         2.012027
 C        -0.661249         1.415939         2.026555
 C        -0.778909         1.336173         0.511876
 O        -0.268509         0.054301         0.020900
 C        -0.181064         2.499672        -0.288438
 C        -1.055482         3.650124         0.261223
 C        -2.271192         3.031017         0.963459
 C        -2.322230         1.551581         0.510571
 H        -2.895874         1.155768         3.751666
 H        -0.002128         2.151982         2.449965
 H        -0.472370         0.468474         2.566919
 H         0.352381        -0.363852         0.612563
 H         0.823029         2.732624         0.036812
 H        -0.217355         2.278467        -1.360402
 H        -0.450855         4.361184         0.856709
 H        -1.362576         4.405185        -0.513090
 H        -3.245368         3.481407         0.915719
 H        -3.110667         1.181300        -0.107834
