19
Iteration:  1358charge 0 multiplicity 1
 O        -3.138124         2.042105         3.029396
 C        -2.127197         1.964881         2.000080
 C        -0.855708         1.321753         2.114472
 C        -0.712433         1.227479         0.444039
 O        -0.152364         0.012012         0.020432
 C        -0.193443         2.503456        -0.177247
 C        -1.053775         3.728412         0.337679
 C        -2.309246         2.941254         0.868932
 C        -2.254352         1.433906         0.541882
 H        -3.310766         1.229747         3.440970
 H        -0.151950         1.854626         2.824654
 H        -1.035698         0.263027         2.308026
 H         0.632516         0.254298        -0.445768
 H         0.871776         2.628934        -0.298176
 H        -0.587367         2.188487        -1.179620
 H        -0.573879         4.315447         1.188666
 H        -1.313760         4.419021        -0.478872
 H        -3.289680         3.387230         0.642240
 H        -3.097000         1.023546         0.009242
