19
Iteration:  3367
 O        -3.061115         1.774469         3.079269
 C        -2.179146         1.962581         1.969919
 C        -0.747936         1.538829         1.974162
 C        -0.772681         1.229930         0.540761
 O        -0.136331         0.064353         0.132388
 C        -0.228848         2.479615        -0.254395
 C        -1.034908         3.647509         0.333432
 C        -2.274504         2.978396         0.872589
 C        -2.350677         1.474207         0.536099
 H        -3.844977         2.214976         2.860490
 H         0.046911         2.186035         2.351348
 H        -0.583047         0.615895         2.617893
 H         0.261652         0.102349        -0.776659
 H         0.825167         2.341471        -0.092216
 H        -0.521200         2.308414        -1.269280
 H        -0.601830         4.214490         1.180900
 H        -1.390764         4.205698        -0.568299
 H        -3.298903         3.428298         0.990970
 H        -3.242097         1.101022         0.021508
