19
Iteration:  2447charge 0 multiplicity 1
 O        -2.951772         1.799001         3.024975
 C        -2.129287         2.020044         1.959368
 C        -0.732739         1.506482         1.957141
 C        -0.753678         1.268041         0.425884
 O        -0.267185        -0.020535         0.199251
 C        -0.126310         2.487681        -0.212692
 C        -1.130855         3.676882         0.345093
 C        -2.363166         2.996571         0.857328
 C        -2.321525         1.542085         0.544385
 H        -2.737491         0.924741         3.495767
 H        -0.013983         2.109900         2.499066
 H        -0.819970         0.533034         2.478772
 H        -0.792932        -0.339337        -0.554670
 H         0.952552         2.744303        -0.047876
 H        -0.120742         2.386766        -1.312767
 H        -0.744203         4.332752         1.202561
 H        -1.505536         4.376185        -0.471604
 H        -3.387647         3.428076         0.695806
 H        -3.208737         0.955326         0.276761
