19
Iteration:  3510charge 0 multiplicity 1
 O        -3.183925         1.722638         2.932152
 C        -2.113581         1.892445         1.933035
 C        -0.669784         1.578035         2.065241
 C        -0.648500         1.350232         0.462569
 O        -0.353787        -0.043231         0.266560
 C        -0.267530         2.521318        -0.332163
 C        -1.101924         3.743428         0.348579
 C        -2.252674         2.977998         0.929873
 C        -2.184331         1.447717         0.554763
 H        -2.893386         2.117361         3.778846
 H        -0.112017         2.357121         2.662317
 H        -0.399558         0.596632         2.462447
 H         0.024446        -0.148823        -0.624803
 H         0.828075         2.559322        -0.313382
 H        -0.507498         2.474523        -1.491132
 H        -0.399623         4.219940         1.021672
 H        -1.518607         4.482139        -0.382250
 H        -3.220240         3.247075         0.635263
 H        -2.924628         0.959318        -0.099708
