19
Iteration:  3401
 O        -3.033833         1.937901         3.107644
 C        -2.147956         1.962973         1.972824
 C        -0.756387         1.362940         2.108066
 C        -0.686903         1.284564         0.571859
 O        -0.229950         0.050809        -0.028606
 C        -0.145730         2.531946        -0.075224
 C        -1.208826         3.620188         0.237647
 C        -2.372622         2.877102         0.795882
 C        -2.214021         1.458706         0.508032
 H        -3.604365         2.662528         3.034575
 H         0.134135         1.851971         2.525330
 H        -0.968754         0.369290         2.499783
 H         0.295148         0.233707        -0.857226
 H         0.855169         2.589287         0.318705
 H         0.002065         2.428297        -1.128384
 H        -0.728275         4.389392         0.871606
 H        -1.517434         4.332636        -0.585192
 H        -3.402018         3.223901         0.942610
 H        -3.032105         0.792335         0.054032
