19
Iteration:  2408
 O        -3.141369         1.855432         2.985923
 C        -2.113445         1.842650         2.033877
 C        -0.667062         1.548382         2.121498
 C        -0.699277         1.328471         0.516201
 O        -0.309063         0.002242         0.126178
 C        -0.301743         2.464529        -0.428793
 C        -1.062064         3.670460         0.341960
 C        -2.207870         2.960354         1.005793
 C        -2.228599         1.541554         0.587853
 H        -3.584267         1.022229         2.839215
 H        -0.076563         2.465309         2.336913
 H        -0.327478         0.573519         2.583742
 H         0.139278        -0.072177        -0.713307
 H         0.776093         2.511201        -0.666746
 H        -0.981486         2.320414        -1.270212
 H        -0.273307         4.182988         0.802666
 H        -1.476467         4.356905        -0.369594
 H        -3.178641         3.446943         0.973275
 H        -3.028262         1.071868        -0.071610
