19
Iteration:  1010charge 0 multiplicity 1
 O        -3.073911         1.912272         3.049753
 C        -2.200801         1.871669         2.002032
 C        -0.761271         1.315528         2.109012
 C        -0.762696         1.255555         0.501777
 O        -0.166946        -0.000705        -0.050293
 C        -0.119483         2.536376        -0.152648
 C        -1.142057         3.720880         0.273037
 C        -2.276064         2.991677         0.806591
 C        -2.310753         1.541673         0.547999
 H        -3.807660         2.440686         2.731146
 H        -0.017359         1.824376         2.708501
 H        -0.713701         0.239311         2.473769
 H         0.235981        -0.305419         0.811358
 H         0.943590         2.669652         0.220805
 H        -0.169286         2.370596        -1.258741
 H        -0.601084         4.161531         1.116596
 H        -1.418730         4.413039        -0.501593
 H        -3.159183         3.624979         0.956098
 H        -3.138160         1.051171         0.053867
