19
Iteration:   924
 O        -3.097809         1.859451         3.042452
 C        -2.234409         1.939750         1.914426
 C        -0.753107         1.456415         2.047914
 C        -0.737649         1.262250         0.474228
 O        -0.286497        -0.032347         0.211586
 C        -0.164285         2.537482        -0.194786
 C        -1.002188         3.655162         0.367494
 C        -2.361690         2.971110         0.842003
 C        -2.246370         1.559607         0.397402
 H        -2.881319         1.074615         3.545106
 H         0.045535         2.103882         2.417513
 H        -0.781914         0.427160         2.579856
 H         0.435681         0.056125        -0.475006
 H         0.901857         2.719587        -0.056581
 H        -0.192882         2.479097        -1.277617
 H        -0.403761         4.070703         1.203160
 H        -1.208962         4.440489        -0.386823
 H        -3.296514         3.552475         0.776399
 H        -3.061230         1.137935        -0.205844
