19
Iteration:  2563charge 0 multiplicity 1
 O        -3.056514         1.882490         3.221115
 C        -2.211695         1.920223         2.045790
 C        -0.730985         1.567393         1.996132
 C        -0.747714         1.310881         0.486787
 O        -0.293948         0.093650        -0.076284
 C        -0.129963         2.490358        -0.241979
 C        -1.013468         3.590482         0.319504
 C        -2.327614         2.932297         0.903853
 C        -2.332410         1.458018         0.442945
 H        -2.949859         0.904804         3.496757
 H        -0.011776         2.371285         2.434774
 H        -0.485013         0.655151         2.589401
 H        -0.415195        -0.594794         0.645417
 H         0.903676         2.609954         0.084765
 H        -0.058423         2.201647        -1.321838
 H        -0.461790         4.208209         1.031358
 H        -1.308823         4.196242        -0.521254
 H        -3.196948         3.444031         0.408468
 H        -3.066298         1.035918        -0.237670
