19
Iteration:  1244
 O        -3.142188         1.898299         2.994400
 C        -2.158750         1.897245         2.032494
 C        -0.768921         1.437152         2.064837
 C        -0.752427         1.277189         0.482903
 O        -0.164322         0.005978        -0.028553
 C        -0.068446         2.483048        -0.096934
 C        -1.101894         3.714296         0.243796
 C        -2.331704         3.028647         0.872833
 C        -2.296626         1.525892         0.530768
 H        -3.054155         1.263300         3.685497
 H        -0.058512         2.054574         2.612155
 H        -0.668033         0.365833         2.657189
 H        -0.860527        -0.637550        -0.021991
 H         0.825907         2.466084         0.609893
 H         0.127995         2.243567        -1.147003
 H        -0.489795         4.343490         0.890841
 H        -1.437085         4.250125        -0.676961
 H        -3.257050         3.603293         0.814871
 H        -3.056569         1.102511        -0.090298
