19
Iteration:  1411
 O        -3.111452         1.973417         3.049516
 C        -2.168134         1.923777         1.943555
 C        -0.768306         1.500586         2.048254
 C        -0.726089         1.223139         0.498504
 O        -0.411191        -0.029363        -0.061213
 C         0.008441         2.639028        -0.079047
 C        -1.070835         3.658767         0.327589
 C        -2.313498         2.882975         0.851222
 C        -2.262707         1.403472         0.505484
 H        -3.056142         1.135438         3.465607
 H        -0.106927         2.219394         2.517736
 H        -0.614161         0.501847         2.594043
 H         0.397085        -0.285670         0.362322
 H         0.809262         2.965961         0.614911
 H         0.403563         2.589328        -1.104505
 H        -0.737273         4.552554         0.880382
 H        -1.609085         4.030428        -0.566158
 H        -3.229470         3.458227         0.777399
 H        -2.870670         0.825976        -0.145325
