19
Iteration:  4851
 O        -3.183327         1.954419         2.923565
 C        -2.163376         1.978705         2.037654
 C        -0.684959         1.353565         2.081469
 C        -0.744434         1.225731         0.459652
 O        -0.069135         0.085539        -0.002887
 C        -0.145806         2.539293        -0.131880
 C        -1.121615         3.635328         0.358607
 C        -2.302371         2.955788         0.929805
 C        -2.375983         1.474966         0.552098
 H        -3.396274         1.107537         3.235062
 H         0.122396         2.088530         2.177140
 H        -0.595866         0.371710         2.757549
 H        -0.525098        -0.398835        -0.684703
 H         0.873930         2.666908         0.168575
 H        -0.253297         2.528662        -1.267032
 H        -0.603051         4.169180         1.282855
 H        -1.300820         4.480239        -0.316956
 H        -3.319545         3.378345         0.855893
 H        -3.075825         0.893568        -0.024550
