19
Iteration:   660
 O        -3.186773         1.931496         2.913959
 C        -2.188147         1.868368         1.925166
 C        -0.799860         1.290982         2.119256
 C        -0.739488         1.279324         0.517301
 O        -0.261089         0.078083         0.045936
 C        -0.081770         2.608655        -0.059145
 C        -1.043670         3.665356         0.300687
 C        -2.220625         3.007423         0.914885
 C        -2.218074         1.488829         0.517276
 H        -3.175491         1.238042         3.646346
 H        -0.002506         1.881519         2.527298
 H        -0.884896         0.237475         2.636444
 H        -0.813917        -0.168500        -0.726341
 H         0.983306         2.687253         0.299622
 H        -0.081126         2.425025        -1.104041
 H        -0.545630         4.427808         0.940906
 H        -1.366595         4.010364        -0.706065
 H        -3.173127         3.496452         0.902683
 H        -2.854019         0.989705        -0.236122
