19
Iteration:  3848
 O        -3.100135         1.818002         2.922274
 C        -2.133923         2.019516         2.012485
 C        -0.744292         1.378826         2.066157
 C        -0.750391         1.259357         0.492874
 O        -0.160621         0.044933         0.087222
 C        -0.095247         2.521200        -0.123713
 C        -1.130707         3.693723         0.312879
 C        -2.302834         2.948454         0.830414
 C        -2.330516         1.481304         0.542221
 H        -3.305513         2.502144         3.584790
 H         0.061484         1.880757         2.487102
 H        -0.906490         0.343674         2.381524
 H        -0.640113        -0.366692        -0.637150
 H         0.863177         2.819785         0.282626
 H         0.046355         2.281629        -1.184981
 H        -0.743699         4.455267         1.030290
 H        -1.580727         4.254121        -0.561208
 H        -3.257261         3.483562         0.969763
 H        -3.082367         0.785166         0.257350
