19
Iteration:   546
 O        -3.227978         1.769563         2.974154
 C        -2.186999         1.995592         2.014828
 C        -0.755384         1.392962         2.107556
 C        -0.726312         1.333137         0.599593
 O        -0.186313        -0.058753         0.029136
 C        -0.107285         2.518349        -0.115912
 C        -0.971165         3.694036         0.262374
 C        -2.251919         3.063171         0.812308
 C        -2.299563         1.516000         0.594147
 H        -4.147353         1.801579         2.548382
 H         0.106221         2.080287         2.467780
 H        -0.662906         0.416223         2.470848
 H        -0.309112         0.026647        -0.921940
 H         0.846293         2.677466         0.305012
 H        -0.068897         2.382229        -1.175375
 H        -0.483264         4.239540         1.060361
 H        -1.341315         4.285928        -0.546960
 H        -3.246322         3.485943         0.715897
 H        -3.056886         0.945601         0.097569
