19
Iteration:  2219
 O        -2.992991         1.779460         3.004138
 C        -2.128193         2.014959         1.973912
 C        -0.648271         1.564571         1.969129
 C        -0.791569         1.262359         0.475146
 O        -0.259747        -0.040169         0.247903
 C        -0.295900         2.454145        -0.249589
 C        -1.044172         3.728303         0.455891
 C        -2.386057         2.959439         0.817374
 C        -2.309511         1.563144         0.457476
 H        -2.750251         1.045289         3.537440
 H         0.139206         2.239466         2.358648
 H        -0.500988         0.514891         2.369167
 H        -0.502113        -0.273334        -0.704359
 H         0.816413         2.496816        -0.327271
 H        -0.694812         2.522347        -1.257262
 H        -0.509641         4.116735         1.292704
 H        -0.811646         4.507063        -0.269510
 H        -3.393468         3.298628         0.675944
 H        -3.085691         1.020192        -0.127297
