19
Iteration:  3397charge 0 multiplicity 1
 O        -3.039580         1.915912         3.104155
 C        -2.141007         1.949311         1.991310
 C        -0.760919         1.386164         2.091759
 C        -0.703273         1.238540         0.548440
 O        -0.197187         0.045716        -0.030576
 C        -0.158366         2.537461        -0.110643
 C        -1.197214         3.627283         0.229055
 C        -2.379652         2.953674         0.805938
 C        -2.234989         1.462167         0.533435
 H        -3.697156         2.693518         2.930098
 H         0.064548         1.920960         2.590735
 H        -0.886592         0.335159         2.580649
 H         0.316184         0.159459        -0.818978
 H         0.839703         2.503951         0.415390
 H         0.107234         2.409979        -1.213256
 H        -0.737281         4.284793         0.987616
 H        -1.429368         4.347036        -0.529222
 H        -3.464644         3.186622         0.888761
 H        -2.995800         0.792308         0.285686
