19
Iteration:  4348charge 0 multiplicity 1
 O        -3.095984         2.065123         3.070844
 C        -2.201203         1.896782         1.922692
 C        -0.795757         1.393291         2.181642
 C        -0.655997         1.226748         0.518889
 O        -0.273354         0.064440        -0.101557
 C        -0.105226         2.544678        -0.132930
 C        -1.151010         3.663360         0.354887
 C        -2.414833         2.875800         0.867498
 C        -2.153005         1.412052         0.469124
 H        -3.300116         1.143493         3.452672
 H        -0.047958         1.956750         2.734373
 H        -0.859113         0.300688         2.583336
 H         0.594785         0.192202        -0.479898
 H         0.992896         2.764990         0.186781
 H         0.029688         2.410881        -1.174145
 H        -0.700783         4.277955         1.208150
 H        -1.334189         4.518508        -0.358059
 H        -3.460187         3.209946         0.646604
 H        -2.866256         0.883428        -0.129227
