19
Iteration:  4632charge 0 multiplicity 1
 O        -3.212034         1.845386         2.921537
 C        -2.154165         1.927342         1.959771
 C        -0.682922         1.494710         2.037679
 C        -0.757750         1.228294         0.504063
 O        -0.225856         0.024319         0.127290
 C        -0.212437         2.499128        -0.299008
 C        -1.018209         3.750582         0.370636
 C        -2.272778         3.018515         0.971412
 C        -2.288630         1.465999         0.566585
 H        -3.464085         0.868838         3.061149
 H         0.198527         2.001596         2.467169
 H        -0.479084         0.493467         2.585043
 H         0.536038         0.220665        -0.405570
 H         0.902783         2.636642        -0.254253
 H        -0.612651         2.391970        -1.401236
 H        -0.297317         4.055936         1.250345
 H        -1.350646         4.454815        -0.390799
 H        -3.253091         3.449709         1.000848
 H        -3.117675         0.778910         0.337395
