19
Iteration:  3893
 O        -3.185845         1.619659         2.932341
 C        -2.221567         1.927998         1.946892
 C        -0.715243         1.674515         2.157252
 C        -0.732360         1.298388         0.528880
 O        -0.273887         0.063937         0.071834
 C        -0.206185         2.500623        -0.296350
 C        -0.909670         3.625410         0.362902
 C        -2.255114         2.980583         0.930323
 C        -2.278316         1.487820         0.425311
 H        -2.833209         2.213013         3.657672
 H        -0.231167         2.561362         2.416060
 H        -0.550862         0.844862         2.782142
 H        -0.237663        -0.496727         0.868600
 H         0.847379         2.434122        -0.325770
 H        -0.618229         2.405138        -1.314836
 H        -0.309477         4.037877         1.188258
 H        -1.206693         4.486080        -0.302552
 H        -3.209444         3.425966         0.847132
 H        -3.056613         1.075144        -0.191410
