19
Iteration:  4235
 O        -3.041084         1.727017         2.952200
 C        -2.195485         2.005680         1.982058
 C        -0.702421         1.492785         2.116190
 C        -0.782263         1.227586         0.560951
 O        -0.266611        -0.040556        -0.057809
 C        -0.165373         2.593311        -0.147900
 C        -1.031597         3.732954         0.378221
 C        -2.390207         2.980351         0.834143
 C        -2.263242         1.481409         0.514362
 H        -3.740007         2.369749         3.014171
 H         0.140239         2.121459         2.639753
 H        -0.655232         0.566644         2.658498
 H         0.596269        -0.285365         0.247021
 H         0.890361         2.589779         0.029535
 H        -0.290006         2.356264        -1.241555
 H        -0.498090         4.291762         1.175407
 H        -1.275636         4.521445        -0.320062
 H        -3.354924         3.425384         0.633061
 H        -3.104498         0.760943         0.353679
