19
Iteration:   608charge 0 multiplicity 1
 O        -3.185040         1.948417         2.991616
 C        -2.264553         1.971712         1.904005
 C        -0.791335         1.466830         2.037805
 C        -0.709114         1.275038         0.504554
 O        -0.209364        -0.021958         0.067933
 C        -0.118306         2.528789        -0.160059
 C        -0.966579         3.694550         0.516308
 C        -2.259037         2.911598         0.825246
 C        -2.276907         1.443307         0.486025
 H        -3.267461         1.022566         3.393540
 H        -0.047346         2.037629         2.560133
 H        -0.837633         0.392200         2.405243
 H        -0.234075         0.179428        -0.877974
 H         0.977756         2.421478         0.011933
 H        -0.313202         2.312309        -1.267124
 H        -0.453310         4.107499         1.383942
 H        -1.115648         4.605887        -0.135476
 H        -3.220492         3.384748         0.670493
 H        -3.128705         1.093125        -0.097532
