19
Iteration:  1391charge 0 multiplicity 1
 O        -3.063967         2.034105         3.021971
 C        -2.140974         1.856849         1.967022
 C        -0.698933         1.444073         2.052226
 C        -0.755299         1.320974         0.472224
 O        -0.361160         0.037865        -0.026943
 C        -0.044959         2.497796         0.070760
 C        -1.097202         3.642055         0.309934
 C        -2.405777         2.888927         0.743772
 C        -2.300284         1.421978         0.456117
 H        -2.945297         1.321571         3.723618
 H        -0.020107         2.211181         2.528991
 H        -0.542733         0.499224         2.544527
 H         0.618479        -0.048880        -0.045297
 H         0.942387         2.550487         0.500907
 H         0.033035         2.392780        -1.044116
 H        -0.916114         4.259566         1.230496
 H        -1.201354         4.348214        -0.511939
 H        -3.378770         3.430608         0.738792
 H        -3.055620         0.894030        -0.096240
