19
Iteration:   953
 O        -3.138592         1.709340         2.914753
 C        -2.221439         1.956914         1.936118
 C        -0.661982         1.563484         2.098451
 C        -0.801106         1.236313         0.543342
 O        -0.405334        -0.026177         0.082203
 C        -0.067732         2.526674        -0.172233
 C        -0.999751         3.717755         0.289944
 C        -2.339346         2.994158         0.846760
 C        -2.254179         1.469414         0.521269
 H        -2.774428         1.778393         3.859101
 H         0.169898         2.240639         2.415290
 H        -0.776411         0.717358         2.744712
 H         0.552400        -0.022590         0.123704
 H         1.029583         2.656403         0.146051
 H        -0.052140         2.508956        -1.323519
 H        -0.344121         4.367069         0.947520
 H        -1.206085         4.516581        -0.426313
 H        -3.211850         3.650740         1.015479
 H        -3.133698         0.945074         0.137301
