19
Iteration:  2753
 O        -3.103240         1.702125         3.071734
 C        -2.090563         2.026336         2.039048
 C        -0.683507         1.565190         2.025740
 C        -0.803608         1.280880         0.521685
 O        -0.163160         0.043740        -0.068195
 C        -0.173933         2.439684        -0.253078
 C        -1.008408         3.649188         0.400781
 C        -2.363246         2.988522         0.828288
 C        -2.386166         1.493971         0.589451
 H        -3.491472         2.495834         3.382073
 H         0.080222         2.362250         2.338480
 H        -0.501256         0.580618         2.532445
 H        -0.834610        -0.596908        -0.289287
 H         0.905341         2.444760         0.018221
 H        -0.305157         2.478969        -1.346619
 H        -0.554538         4.118313         1.274689
 H        -1.120568         4.260956        -0.477195
 H        -3.219405         3.656320         0.775733
 H        -3.157685         0.811767         0.274526
