19
Iteration:   672
 O        -3.182639         1.907918         3.052654
 C        -2.205414         1.932507         2.004380
 C        -0.805336         1.284103         2.078859
 C        -0.694991         1.297268         0.498436
 O        -0.226643         0.016852         0.101712
 C        -0.015936         2.523819        -0.100101
 C        -1.070613         3.702321         0.270828
 C        -2.315347         2.967995         0.894517
 C        -2.225317         1.623440         0.356853
 H        -3.127683         0.953136         3.292276
 H        -0.090736         1.661919         2.770136
 H        -1.008437         0.151775         2.362197
 H        -0.611887        -0.306237        -0.714917
 H         0.977968         2.653659         0.420285
 H         0.195357         2.487631        -1.156920
 H        -0.672938         4.543655         0.850976
 H        -1.455604         4.274695        -0.626944
 H        -3.229691         3.520945         0.883672
 H        -3.010388         1.170273        -0.226556
