19
Iteration:  3621
 O        -3.085901         1.964651         2.958831
 C        -2.059913         1.969106         2.007012
 C        -0.675477         1.344845         2.062149
 C        -0.790606         1.187923         0.567361
 O        -0.154953         0.024183        -0.046361
 C        -0.102385         2.601764         0.074211
 C        -1.198422         3.699996         0.221386
 C        -2.369577         2.843071         0.766229
 C        -2.326171         1.428669         0.589839
 H        -2.994037         2.826264         3.439938
 H         0.259465         1.788323         2.524285
 H        -0.911072         0.401816         2.448056
 H        -0.528283         0.010390        -0.968527
 H         0.800958         2.789925         0.625550
 H        -0.091306         2.695493        -1.109670
 H        -0.894300         4.441891         0.956203
 H        -1.480392         4.197221        -0.727833
 H        -3.458876         3.264428         0.723220
 H        -3.150431         0.730250         0.393595
