19
Iteration:  4706
 O        -3.058665         2.028242         2.997217
 C        -2.142241         1.934907         1.948680
 C        -0.776243         1.266685         1.997941
 C        -0.732945         1.225282         0.492645
 O        -0.069848         0.031270         0.030429
 C        -0.125540         2.570195         0.007027
 C        -1.153095         3.682206         0.290135
 C        -2.401989         2.945113         0.940470
 C        -2.359677         1.515918         0.465186
 H        -3.212017         1.192009         3.526095
 H         0.056872         1.922616         2.348421
 H        -0.937041         0.208221         2.505677
 H        -0.379372        -0.205240        -0.891171
 H         0.826349         2.681138         0.568959
 H         0.122121         2.508791        -1.064192
 H        -0.725282         4.587773         0.761517
 H        -1.509414         4.153556        -0.641096
 H        -3.337311         3.446311         0.952740
 H        -3.120464         0.755178         0.150588
