19
Iteration:  2532charge 0 multiplicity 1
 O        -2.969186         1.992597         3.046934
 C        -2.091104         1.988686         1.965485
 C        -0.715552         1.216792         2.065096
 C        -0.741798         1.232606         0.540293
 O        -0.109652         0.050196        -0.055867
 C        -0.267850         2.576787        -0.080741
 C        -1.134435         3.728486         0.193293
 C        -2.297427         3.032323         0.871458
 C        -2.451455         1.437807         0.599318
 H        -3.222633         1.123077         3.282822
 H         0.176631         1.680607         2.662758
 H        -0.898058         0.256831         2.548599
 H        -0.723218        -0.661499        -0.161140
 H         0.767719         2.833246         0.202863
 H        -0.220784         2.188986        -1.125156
 H        -0.734125         4.596280         0.781927
 H        -1.477616         4.250186        -0.720402
 H        -3.297797         3.572581         0.934767
 H        -3.280142         0.803418         0.246748
