19
Iteration:  4679charge 0 multiplicity 1
 O        -3.027634         1.948339         3.017598
 C        -2.191172         1.961224         1.954747
 C        -0.811026         1.387529         2.020877
 C        -0.775418         1.292250         0.492916
 O        -0.193717         0.032451         0.074272
 C        -0.132096         2.596388        -0.089419
 C        -1.036586         3.678886         0.387705
 C        -2.395576         2.912069         0.785975
 C        -2.340204         1.395380         0.474263
 H        -2.824555         1.282391         3.722222
 H        -0.049934         2.063619         2.455228
 H        -0.693727         0.472737         2.547410
 H         0.059799         0.082129        -0.889524
 H         0.898953         2.527050         0.394684
 H        -0.057210         2.470609        -1.206447
 H        -0.626786         4.160380         1.287681
 H        -1.218143         4.400269        -0.430583
 H        -3.450098         3.336279         0.862817
 H        -2.895213         0.710428        -0.174812
