19
Iteration:  2164charge 0 multiplicity 1
 O        -3.154086         2.007171         2.993124
 C        -2.137715         1.985361         2.047439
 C        -0.603025         1.295460         2.086031
 C        -0.723031         1.217030         0.549206
 O        -0.267919         0.117388        -0.138896
 C        -0.180373         2.525512        -0.117323
 C        -1.217350         3.620538         0.258362
 C        -2.267000         2.956287         0.927908
 C        -2.289141         1.485222         0.532845
 H        -2.901277         1.308629         3.680125
 H         0.306801         1.884051         2.309149
 H        -0.641108         0.355527         2.690712
 H        -0.152335        -0.575077         0.519094
 H         0.869113         2.789484         0.216703
 H        -0.098409         2.399924        -1.183993
 H        -0.633909         4.289301         0.869392
 H        -1.405472         4.049322        -0.750497
 H        -3.188056         3.538538         1.025617
 H        -2.978346         0.832296        -0.102688
