19
Iteration:  3587charge 0 multiplicity 1
 O        -3.149581         1.930644         3.043618
 C        -2.160602         1.786993         2.016424
 C        -0.738822         1.367182         2.153983
 C        -0.708765         1.261895         0.534988
 O        -0.140353         0.052780         0.019936
 C        -0.143841         2.589299        -0.144498
 C        -1.147867         3.649188         0.200983
 C        -2.317089         2.952512         0.860171
 C        -2.279280         1.508024         0.545527
 H        -3.059271         2.837606         3.244915
 H         0.123125         1.724052         2.756183
 H        -0.655200         0.318495         2.278763
 H        -0.659948        -0.033860        -0.829059
 H         0.922780         2.761848         0.018863
 H        -0.087628         2.297822        -1.311104
 H        -0.721164         4.384093         0.865021
 H        -1.501966         4.266542        -0.642586
 H        -3.362456         3.282149         0.926963
 H        -2.980723         0.919805         0.035829
