19
Iteration:  1119
 O        -3.239931         1.667687         2.927049
 C        -2.168589         1.974295         2.052741
 C        -0.693078         1.462860         2.108281
 C        -0.688924         1.228807         0.535207
 O        -0.243615         0.072159         0.072014
 C        -0.171716         2.477650        -0.249648
 C        -1.030355         3.734223         0.233230
 C        -2.197328         3.036787         0.864892
 C        -2.263658         1.543637         0.603323
 H        -2.991459         2.090317         3.745524
 H        -0.082239         2.210759         2.634508
 H        -0.781500         0.543056         2.632819
 H        -1.020204        -0.503474         0.135792
 H         0.834244         2.801074        -0.039266
 H        -0.398058         2.226796        -1.302234
 H        -0.434231         4.488390         0.751230
 H        -1.288581         4.293120        -0.641133
 H        -3.207483         3.438099         0.785452
 H        -2.907347         0.947647        -0.102235
