19
Iteration:  4039charge 0 multiplicity 1
 O        -3.197608         1.808027         3.052659
 C        -2.234579         1.840201         1.995087
 C        -0.800948         1.410867         2.093214
 C        -0.710932         1.335841         0.487196
 O        -0.241971         0.020284         0.107806
 C        -0.112002         2.591759        -0.271052
 C        -1.019670         3.697987         0.297145
 C        -2.269533         2.911069         0.917013
 C        -2.196735         1.486622         0.483018
 H        -3.420612         2.661827         3.472270
 H        -0.118046         1.956163         2.715397
 H        -0.796646         0.383072         2.400310
 H         0.233924         0.233103        -0.699588
 H         0.962964         2.710027         0.000263
 H        -0.215328         2.395271        -1.318053
 H        -0.447802         4.425422         0.928446
 H        -1.597894         4.281469        -0.454290
 H        -3.245303         3.457690         0.844315
 H        -2.771980         0.819008        -0.106046
