19
Iteration:  2432charge 0 multiplicity 1
 O        -3.057200         1.814448         3.030344
 C        -2.122122         1.873593         1.976617
 C        -0.642388         1.432141         2.027804
 C        -0.757600         1.342910         0.477224
 O        -0.312135        -0.046664         0.311299
 C        -0.215801         2.606943        -0.370470
 C        -1.071146         3.749471         0.272872
 C        -2.334308         3.003332         0.918523
 C        -2.304023         1.511353         0.506982
 H        -3.076407         0.897353         3.285279
 H         0.156688         2.124612         2.344466
 H        -0.462862         0.418330         2.269878
 H        -0.396734        -0.445975        -0.602896
 H         0.827285         2.635407        -0.152323
 H        -0.491297         2.521155        -1.443025
 H        -0.388400         4.236154         0.995312
 H        -1.280126         4.482335        -0.495323
 H        -3.230844         3.539666         1.118473
 H        -2.961791         0.950629        -0.124008
