19
Iteration:  4404charge 0 multiplicity 1
 O        -3.149842         1.839153         3.039351
 C        -2.150540         2.014929         1.997095
 C        -0.802615         1.427879         2.120753
 C        -0.689089         1.264378         0.500384
 O        -0.253543         0.036396        -0.030744
 C        -0.161409         2.569204        -0.145104
 C        -1.074650         3.648984         0.297649
 C        -2.278882         2.982513         0.866083
 C        -2.256459         1.496011         0.485314
 H        -2.892399         0.938812         3.246480
 H         0.036289         1.845880         2.663964
 H        -0.827346         0.290697         2.335610
 H         0.570108        -0.121596         0.466029
 H         0.939082         2.803590        -0.070671
 H        -0.580042         2.388343        -1.058948
 H        -0.729817         4.225160         1.141890
 H        -1.443508         4.226737        -0.583565
 H        -3.187534         3.499124         0.674650
 H        -3.050952         0.932750        -0.058438
