19
Iteration:   341
 O        -3.122726         1.933985         3.025080
 C        -2.221833         1.899757         1.973496
 C        -0.836198         1.316638         2.060096
 C        -0.797118         1.215845         0.544992
 O        -0.120344         0.065244         0.017261
 C        -0.114738         2.540013        -0.077034
 C        -1.016800         3.721003         0.278001
 C        -2.299752         3.008606         0.804153
 C        -2.303664         1.529275         0.532394
 H        -3.906858         1.405397         2.761246
 H         0.028107         1.848167         2.418619
 H        -0.828626         0.297923         2.391439
 H         0.369719        -0.333256         0.777365
 H         0.993882         2.625880         0.113350
 H        -0.140680         2.301857        -1.171491
 H        -0.655324         4.186128         1.159583
 H        -1.206170         4.325293        -0.557204
 H        -3.265582         3.462220         0.574129
 H        -2.996624         1.005308        -0.173116
