19
Iteration:   202
 O        -3.320848         1.885122         2.848635
 C        -2.190180         1.917208         2.042303
 C        -0.749462         1.513747         2.186355
 C        -0.680404         1.253279         0.613565
 O        -0.242158         0.042385         0.035855
 C        -0.173977         2.452103        -0.208585
 C        -0.953916         3.699970         0.286966
 C        -2.292517         2.962597         0.825546
 C        -2.196012         1.407956         0.571155
 H        -2.947085         1.576711         3.733563
 H        -0.214022         2.385949         2.464459
 H        -0.540589         0.566668         2.819304
 H         0.475754         0.371142        -0.526076
 H         0.894453         2.623325        -0.365563
 H        -0.582916         2.346958        -1.196872
 H        -0.526776         4.300886         1.129588
 H        -1.243567         4.302292        -0.639095
 H        -3.259365         3.419021         0.922833
 H        -2.799551         0.659686         0.059823
