19
Iteration:  4048
 O        -3.206270         1.720684         3.016226
 C        -2.237454         1.917768         1.986726
 C        -0.763951         1.452274         2.112200
 C        -0.715151         1.292729         0.484015
 O        -0.203029         0.002673         0.124138
 C        -0.059017         2.535661        -0.301352
 C        -1.063813         3.660546         0.348211
 C        -2.260957         2.990321         0.944344
 C        -2.311667         1.491489         0.486606
 H        -3.215117         2.622228         3.410058
 H        -0.210413         2.226078         2.611297
 H        -0.552079         0.577447         2.557272
 H         0.190392        -0.029687        -0.748005
 H         0.910812         2.895919        -0.130433
 H        -0.261438         2.547769        -1.389591
 H        -0.422519         4.350447         0.916930
 H        -1.335650         4.380108        -0.467639
 H        -3.216881         3.605762         0.883118
 H        -2.978833         1.021231        -0.245501
