19
Iteration:  3000charge 0 multiplicity 1
 O        -2.939696         1.719944         3.072178
 C        -2.127568         2.037850         1.958123
 C        -0.772434         1.496646         2.036221
 C        -0.786859         1.226150         0.511946
 O        -0.182193         0.040916         0.149420
 C        -0.176707         2.540909        -0.181190
 C        -1.131821         3.657291         0.312651
 C        -2.377587         2.964977         0.783779
 C        -2.308730         1.462227         0.512442
 H        -3.868172         1.959930         2.902384
 H         0.045284         2.154173         2.412352
 H        -0.691832         0.625690         2.650887
 H        -0.165631         0.026877        -0.805181
 H         0.893280         2.676188         0.061670
 H        -0.329811         2.407831        -1.237985
 H        -0.654696         4.341145         1.053201
 H        -1.180947         4.385137        -0.531489
 H        -3.268597         3.675126         0.777860
 H        -3.219038         0.810584         0.335048
