19
Iteration:  3938
 O        -3.164213         1.737567         2.884270
 C        -2.102503         1.955827         1.996926
 C        -0.708490         1.358575         2.129974
 C        -0.688737         1.272119         0.588063
 O        -0.314738        -0.010263         0.048770
 C        -0.187185         2.567506        -0.181375
 C        -1.140857         3.767069         0.276816
 C        -2.303405         3.028517         0.862633
 C        -2.196615         1.479732         0.563563
 H        -3.308734         2.516687         3.495194
 H         0.158253         1.770228         2.616423
 H        -0.916101         0.422668         2.533106
 H         0.651092         0.028822         0.251136
 H         0.818300         2.835856         0.020525
 H        -0.264414         2.433629        -1.259842
 H        -0.597115         4.439591         0.940317
 H        -1.256083         4.241173        -0.709241
 H        -3.308303         3.464231         0.756598
 H        -2.966544         0.926499        -0.051204
