19
Iteration:  3210
 O        -3.057520         1.962478         3.173604
 C        -2.209302         1.939064         2.000547
 C        -0.731946         1.422165         2.068478
 C        -0.759625         1.216372         0.495210
 O        -0.141091         0.014755         0.004997
 C        -0.142961         2.538735        -0.133225
 C        -1.158233         3.566716         0.292479
 C        -2.397970         2.900850         0.802144
 C        -2.323728         1.462937         0.475925
 H        -3.220233         2.944941         3.301735
 H         0.125918         2.080355         2.409572
 H        -0.573794         0.395986         2.422816
 H         0.532148         0.365391        -0.590725
 H         0.908080         2.701927         0.228342
 H        -0.011842         2.494509        -1.262903
 H        -0.638917         4.275928         0.974960
 H        -1.380472         4.199511        -0.583016
 H        -3.366141         3.358713         0.718555
 H        -3.095899         0.852915        -0.123452
