19
Iteration:  4825charge 0 multiplicity 1
 O        -3.132388         1.877658         3.002963
 C        -2.244472         1.933116         1.947888
 C        -0.816107         1.433630         2.093346
 C        -0.666926         1.299767         0.513119
 O        -0.114930         0.087319         0.098308
 C        -0.234033         2.499890        -0.289510
 C        -0.980709         3.708496         0.449866
 C        -2.310096         2.980063         0.872484
 C        -2.303069         1.415332         0.475114
 H        -3.033486         1.088739         3.483537
 H        -0.059254         1.945590         2.637349
 H        -0.957084         0.480498         2.457921
 H        -0.567164        -0.272040        -0.658140
 H         0.886889         2.613034        -0.427929
 H        -0.717132         2.425589        -1.254526
 H        -0.460201         4.106593         1.253642
 H        -1.094966         4.622920        -0.194826
 H        -3.269248         3.461198         1.021841
 H        -2.682449         0.729877        -0.319374
