19
Iteration:  1715
 O        -3.217593         1.974597         3.027282
 C        -2.176210         1.890728         1.943600
 C        -0.725782         1.500204         2.137224
 C        -0.603280         1.324891         0.493607
 O        -0.348090        -0.018856         0.001390
 C        -0.080966         2.543469        -0.177849
 C        -1.136819         3.623739         0.319087
 C        -2.316430         2.902338         0.850841
 C        -2.192683         1.483219         0.510167
 H        -3.240334         1.262804         3.647460
 H        -0.081516         2.179610         2.627446
 H        -0.637308         0.461414         2.614749
 H         0.555068        -0.178601        -0.391285
 H         0.982653         2.678658         0.173729
 H        -0.069341         2.191519        -1.210232
 H        -0.684512         4.146243         1.189264
 H        -1.569534         4.342603        -0.432454
 H        -3.262037         3.407041         0.928491
 H        -2.745491         0.877635        -0.166498
