19
Iteration:  3999charge 0 multiplicity 1
 O        -3.031683         1.948447         2.988181
 C        -2.142818         2.027707         1.925567
 C        -0.829573         1.363341         2.110921
 C        -0.751507         1.168401         0.551942
 O        -0.117923         0.022996        -0.150282
 C        -0.137397         2.543155         0.042244
 C        -1.157067         3.657567         0.312648
 C        -2.392343         2.908679         0.843829
 C        -2.328064         1.404462         0.524596
 H        -3.290355         2.874035         2.986684
 H         0.132502         1.770358         2.581336
 H        -1.040594         0.340440         2.689805
 H         0.668273         0.261639        -0.676080
 H         0.741398         2.646775         0.760300
 H         0.168418         2.666812        -1.024522
 H        -0.946400         4.424402         1.093872
 H        -1.259595         4.277560        -0.574858
 H        -3.320327         3.427792         0.920299
 H        -3.173549         0.756811         0.450926
