19
Iteration:  3425
 O        -2.954363         1.992292         3.117038
 C        -2.160413         1.794761         1.960545
 C        -0.812957         1.244793         2.148571
 C        -0.767293         1.246168         0.572294
 O        -0.249852         0.064144         0.025280
 C        -0.089907         2.699228        -0.052060
 C        -1.214774         3.682927         0.175158
 C        -2.337884         2.908294         0.809838
 C        -2.252507         1.376944         0.464261
 H        -3.079019         3.002860         3.100197
 H        -0.179883         2.019612         2.651032
 H        -0.748340         0.286310         2.526049
 H         0.041923         0.141957        -0.899828
 H         0.867004         2.708330         0.446240
 H         0.135996         2.621205        -1.076975
 H        -0.930611         4.629117         0.711727
 H        -1.538516         4.245930        -0.748364
 H        -3.380883         3.118591         0.719115
 H        -2.868821         0.755832        -0.275473
