19
Iteration:  4142
 O        -3.107122         1.822331         2.933680
 C        -2.172147         1.915597         1.971640
 C        -0.764765         1.411263         2.076513
 C        -0.751686         1.301389         0.499097
 O        -0.145833         0.054498         0.040473
 C        -0.098775         2.514391        -0.093392
 C        -1.107595         3.625412         0.296342
 C        -2.303899         2.971594         0.921439
 C        -2.348624         1.472615         0.549281
 H        -3.525376         2.676276         3.213474
 H         0.042193         2.147327         2.477746
 H        -0.441251         0.316470         2.339218
 H        -0.459935        -0.073709        -0.901002
 H         0.838535         2.703553         0.475155
 H         0.112386         2.431620        -1.199205
 H        -0.735343         4.350665         1.071106
 H        -1.349133         4.349187        -0.480658
 H        -3.270878         3.543789         0.987000
 H        -3.170223         0.847553         0.144414
