19
Iteration:  1477charge 0 multiplicity 1
 O        -3.238104         1.884914         3.040493
 C        -2.225766         1.941709         2.035026
 C        -0.664906         1.437193         2.072685
 C        -0.727794         1.297294         0.473829
 O        -0.195886        -0.030376         0.067228
 C        -0.223258         2.480909        -0.313500
 C        -0.994252         3.678593         0.378059
 C        -2.299531         2.995365         0.908318
 C        -2.256772         1.518931         0.490762
 H        -3.808082         1.082421         3.226060
 H        -0.069024         2.309564         2.336263
 H        -0.490845         0.653155         2.854311
 H         0.762373         0.099341        -0.211048
 H         0.870748         2.488558        -0.235787
 H        -0.451173         2.196134        -1.354434
 H        -0.227166         4.072382         1.042196
 H        -1.291844         4.487863        -0.285228
 H        -3.178955         3.663691         0.757181
 H        -3.050962         0.952227        -0.028296
