19
Iteration:  1526charge 0 multiplicity 1
 O        -3.116300         1.939560         3.004481
 C        -2.152221         1.976119         1.947805
 C        -0.682604         1.369519         2.028920
 C        -0.758628         1.234816         0.546216
 O        -0.301688         0.006836         0.071212
 C        -0.118824         2.570521        -0.076712
 C        -1.088465         3.653234         0.316313
 C        -2.372585         2.975859         0.724696
 C        -2.286511         1.430467         0.511352
 H        -2.821326         1.466971         3.797716
 H         0.111277         1.884694         2.630910
 H        -0.790147         0.339285         2.328897
 H         0.522520         0.114538        -0.383522
 H         0.786022         3.047018         0.303088
 H         0.032603         2.450474        -1.174243
 H        -0.718251         4.264886         1.193181
 H        -1.248166         4.405367        -0.510963
 H        -3.289853         3.445777         0.987302
 H        -2.968539         0.790047        -0.007603
