19
Iteration:  2874
 O        -3.025278         1.979820         3.130937
 C        -2.211444         1.897535         1.946783
 C        -0.657896         1.302999         2.122767
 C        -0.679086         1.310429         0.454428
 O        -0.330540         0.061764         0.023548
 C        -0.151058         2.628067        -0.086510
 C        -1.138096         3.685703         0.330203
 C        -2.328676         2.787971         0.878469
 C        -2.211776         1.420270         0.426294
 H        -3.691471         2.722203         2.866672
 H        -0.056388         2.050593         2.684591
 H        -0.652948         0.220489         2.370204
 H        -0.098241         0.056416        -0.920535
 H         0.938180         2.804814         0.069716
 H        -0.213744         2.384274        -1.192301
 H        -0.771194         4.371492         1.095493
 H        -1.485879         4.192504        -0.600482
 H        -3.415223         3.187338         0.870166
 H        -2.898616         0.823784        -0.209391
