19
Iteration:  1554
 O        -3.118525         1.967504         3.042691
 C        -2.240602         1.927720         1.939854
 C        -0.842678         1.351324         2.177560
 C        -0.760110         1.195536         0.521268
 O        -0.216425         0.047253        -0.089856
 C        -0.058040         2.527467        -0.095430
 C        -1.137081         3.624206         0.173737
 C        -2.234057         3.041304         0.970032
 C        -2.262771         1.461497         0.508226
 H        -2.852462         1.332264         3.663490
 H        -0.215430         1.992011         2.812570
 H        -0.816287         0.303821         2.551226
 H         0.750326         0.219807        -0.183293
 H         0.812516         2.914160         0.453125
 H         0.152474         2.407987        -1.173139
 H        -0.772005         4.595374         0.524741
 H        -1.641506         3.777756        -0.764991
 H        -3.223955         3.557610         1.078814
 H        -2.995974         0.994065        -0.190999
