19
Iteration:  4768charge 0 multiplicity 1
 O        -3.120104         1.830609         2.926336
 C        -2.117890         1.949307         1.993487
 C        -0.681681         1.493889         2.068469
 C        -0.730017         1.226730         0.502158
 O        -0.263250        -0.018157         0.068048
 C        -0.140782         2.519303        -0.109946
 C        -1.120342         3.693703         0.325359
 C        -2.279615         2.971016         0.890759
 C        -2.335744         1.538072         0.550645
 H        -3.307943         0.838039         2.906932
 H         0.129269         2.111357         2.438457
 H        -0.659251         0.686327         2.660430
 H         0.074192         0.143620        -0.856631
 H         0.807523         2.785693         0.419278
 H         0.080754         2.588842        -1.162908
 H        -0.599539         4.300562         0.996963
 H        -1.539512         4.242709        -0.523796
 H        -3.285231         3.408475         0.750300
 H        -3.274580         1.066958         0.176967
