19
Iteration:   567charge 0 multiplicity 1
 O        -3.091857         1.803487         3.011879
 C        -2.222171         1.908021         1.914894
 C        -0.859551         1.386235         2.052256
 C        -0.736589         1.213668         0.465299
 O        -0.154645         0.029566         0.236806
 C        -0.083577         2.467670        -0.209495
 C        -1.007311         3.751832         0.345362
 C        -2.248834         3.046807         0.931084
 C        -2.340885         1.595173         0.435554
 H        -3.900845         1.473725         2.632722
 H         0.027368         1.765170         2.662085
 H        -1.169952         0.421491         2.368138
 H        -0.015278        -0.222366        -0.689585
 H         0.924734         2.641006         0.051019
 H        -0.243122         2.474203        -1.299726
 H        -0.492903         4.328494         1.094712
 H        -1.357166         4.324851        -0.518212
 H        -3.182945         3.612371         0.967322
 H        -3.230138         1.296119        -0.091379
