19
Iteration:  1840charge 0 multiplicity 1
 O        -3.063218         1.799360         2.988620
 C        -2.217572         1.999582         1.982743
 C        -0.676404         1.605085         2.060141
 C        -0.780433         1.212793         0.495149
 O        -0.217317        -0.027657         0.080309
 C        -0.150558         2.541723        -0.215732
 C        -1.026538         3.701146         0.379955
 C        -2.351689         2.973573         0.833305
 C        -2.296289         1.468410         0.529203
 H        -3.287050         0.895632         3.167817
 H         0.079107         2.351441         2.393671
 H        -0.589619         0.813460         2.833069
 H        -1.059455        -0.588255         0.086287
 H         0.905788         2.677601         0.022921
 H        -0.287366         2.505036        -1.329783
 H        -0.552045         4.000992         1.329353
 H        -1.007300         4.577198        -0.247638
 H        -3.327506         3.294809         0.392281
 H        -2.967848         0.977239        -0.164357
