19
Iteration:  4407
 O        -3.143602         1.814890         3.050718
 C        -2.174036         2.004887         1.990371
 C        -0.784133         1.417417         2.128354
 C        -0.681836         1.278742         0.525153
 O        -0.280892         0.046665        -0.019165
 C        -0.148066         2.559210        -0.135934
 C        -1.065744         3.654898         0.281796
 C        -2.284544         3.007336         0.861212
 C        -2.225356         1.481565         0.448623
 H        -2.886711         0.930581         3.309290
 H        -0.008893         1.916286         2.739585
 H        -0.881226         0.397285         2.387736
 H         0.566630        -0.218152         0.461026
 H         0.880274         2.785044        -0.223698
 H        -0.628229         2.418363        -1.159148
 H        -0.668465         4.265060         1.064360
 H        -1.440326         4.327942        -0.545825
 H        -3.264706         3.407047         0.687114
 H        -3.094348         1.020286        -0.058384
