19
Iteration:  3832charge 0 multiplicity 1
 O        -3.165663         1.898006         2.958952
 C        -2.138971         1.915163         1.945286
 C        -0.705533         1.371541         2.089696
 C        -0.729102         1.227406         0.549864
 O        -0.181929         0.025577        -0.045400
 C        -0.130274         2.543879         0.010181
 C        -1.138778         3.643630         0.194577
 C        -2.348693         2.958344         0.931934
 C        -2.275556         1.457645         0.600255
 H        -3.083749         2.856341         3.318164
 H         0.098491         2.116760         2.488072
 H        -0.682063         0.424271         2.710039
 H        -0.161280         0.254081        -1.003627
 H         0.900884         2.569499         0.466200
 H         0.005600         2.570255        -1.095475
 H        -0.748345         4.502763         0.755609
 H        -1.318940         4.043561        -0.784397
 H        -3.311909         3.442018         0.889725
 H        -3.115745         0.898938         0.142845
