19
Iteration:   355charge 0 multiplicity 1
 O        -3.119277         1.836697         3.121675
 C        -2.271664         1.985848         1.908257
 C        -0.838691         1.363835         2.105354
 C        -0.732304         1.264892         0.526581
 O        -0.199903         0.023005         0.081628
 C        -0.035267         2.576204        -0.216855
 C        -0.972850         3.740366         0.289960
 C        -2.285264         2.973357         0.793235
 C        -2.359079         1.474632         0.373140
 H        -3.619244         1.021470         3.072770
 H        -0.170722         1.920135         2.804074
 H        -1.079762         0.364361         2.707147
 H         0.360029        -0.328884         0.792673
 H         0.898587         2.685390         0.393711
 H         0.103811         2.522720        -1.303084
 H        -0.413020         4.371912         1.000125
 H        -1.307341         4.509712        -0.498558
 H        -3.170008         3.595652         0.948138
 H        -3.134197         0.913641        -0.169186
