19
Iteration:   429
 O        -3.388819         1.874589         2.920669
 C        -2.221292         1.991078         1.972324
 C        -0.720323         1.419758         2.144703
 C        -0.668322         1.284683         0.523609
 O        -0.267528         0.077657         0.046040
 C        -0.134496         2.476353        -0.173791
 C        -1.021489         3.657795         0.348782
 C        -2.229795         2.938596         0.855678
 C        -2.153602         1.438520         0.536078
 H        -2.983322         1.927170         3.810456
 H         0.089928         2.007360         2.536996
 H        -0.722436         0.449838         2.555159
 H         0.420432         0.056973        -0.652813
 H         0.978819         2.699226        -0.052799
 H        -0.326457         2.227061        -1.251410
 H        -0.445828         4.122421         1.194313
 H        -1.174505         4.336673        -0.457637
 H        -3.252433         3.312270         0.883464
 H        -2.884682         1.021894        -0.159034
