19
Iteration:  2265
 O        -3.166782         1.918507         3.151373
 C        -2.118811         1.904568         2.070378
 C        -0.668832         1.434487         2.116622
 C        -0.705078         1.269159         0.494796
 O        -0.322216         0.069149        -0.081157
 C        -0.222862         2.496490        -0.225167
 C        -1.111913         3.626849         0.154604
 C        -2.250862         2.994471         0.918696
 C        -2.196843         1.489633         0.625762
 H        -3.746113         1.189109         3.066101
 H         0.008751         2.193255         2.434669
 H        -0.477521         0.429786         2.567902
 H         0.636089         0.048621        -0.350657
 H         0.848937         2.615729        -0.119093
 H        -0.368793         2.192543        -1.261641
 H        -0.593106         4.386507         0.714185
 H        -1.550934         4.205512        -0.653478
 H        -3.309993         3.322291         0.894490
 H        -2.904163         0.909709         0.087216
