19
Iteration:   768charge 0 multiplicity 1
 O        -3.206654         1.818292         2.900623
 C        -2.210976         1.936437         1.943688
 C        -0.746872         1.384947         2.137539
 C        -0.693954         1.269347         0.578954
 O        -0.281840         0.079247         0.016553
 C        -0.190504         2.492097        -0.270276
 C        -0.988944         3.650197         0.431697
 C        -2.238314         2.991129         0.869542
 C        -2.252171         1.474119         0.529751
 H        -3.675430         2.646796         3.210162
 H        -0.002737         2.067834         2.627789
 H        -0.732478         0.413456         2.691177
 H         0.635064        -0.142859         0.155121
 H         0.910732         2.735170        -0.258399
 H        -0.591599         2.343307        -1.302498
 H        -0.325281         4.178595         1.175912
 H        -0.956326         4.453595        -0.298677
 H        -3.171202         3.467061         1.066674
 H        -3.001094         0.967724        -0.035328
