19
Iteration:  4991charge 0 multiplicity 1
 O        -3.121205         1.909493         2.986775
 C        -2.158732         1.870429         1.952932
 C        -0.714807         1.424292         2.086383
 C        -0.713204         1.277255         0.483830
 O        -0.174249         0.052503         0.128019
 C        -0.232876         2.544652        -0.262516
 C        -1.048710         3.665325         0.465774
 C        -2.374970         2.980023         0.770064
 C        -2.224140         1.490391         0.540254
 H        -3.584302         1.014590         2.926548
 H         0.078471         2.161418         2.413186
 H        -0.625858         0.372135         2.484063
 H        -0.395644        -0.160909        -0.793175
 H         0.833389         2.639105         0.030668
 H        -0.515718         2.705344        -1.332084
 H        -0.633669         3.893677         1.445858
 H        -1.129104         4.565836        -0.190204
 H        -3.309342         3.567659         0.748721
 H        -2.956541         0.704090         0.356163
