19
Iteration:  1223
 O        -3.209014         2.021510         3.009546
 C        -2.203048         2.042777         2.000164
 C        -0.818080         1.307555         2.142586
 C        -0.703627         1.205555         0.569565
 O        -0.119410         0.160450        -0.160503
 C        -0.122698         2.507138        -0.158247
 C        -1.040414         3.609657         0.281816
 C        -2.267418         2.944517         0.874040
 C        -2.273889         1.459314         0.572861
 H        -3.082642         1.090782         3.272672
 H         0.047156         1.736592         2.567444
 H        -0.835647         0.288639         2.672562
 H        -0.424493        -0.655868         0.331859
 H         0.947706         2.509634         0.118349
 H        -0.308280         2.260087        -1.203165
 H        -0.693955         4.359759         1.002274
 H        -1.392520         4.093581        -0.665663
 H        -3.242721         3.404411         0.961090
 H        -3.185542         0.979241         0.318551
