19
Iteration:  2987charge 0 multiplicity 1
 O        -2.961521         1.785296         2.955198
 C        -2.120612         1.924941         1.903840
 C        -0.574829         1.543983         2.023473
 C        -0.732701         1.333240         0.478774
 O        -0.285340        -0.011151         0.223723
 C        -0.191455         2.548599        -0.173943
 C        -1.100551         3.687164         0.347939
 C        -2.381084         2.950851         0.866868
 C        -2.406916         1.464361         0.537875
 H        -3.871377         1.775632         2.530012
 H         0.153135         2.308579         2.365313
 H        -0.543391         0.534013         2.521236
 H        -0.164537        -0.218513        -0.750483
 H         0.857189         2.695782         0.132649
 H        -0.216748         2.515622        -1.275920
 H        -0.728253         4.140077         1.249394
 H        -1.580672         4.345666        -0.368059
 H        -3.363018         3.397672         0.945372
 H        -3.066898         0.557836         0.340692
