19
Iteration:  4671
 O        -3.047725         1.942705         3.056291
 C        -2.231292         1.903257         1.939152
 C        -0.816241         1.426314         2.037960
 C        -0.728020         1.302353         0.527114
 O        -0.245088         0.045179         0.070159
 C        -0.126242         2.557273        -0.161977
 C        -1.030411         3.683852         0.407190
 C        -2.391475         2.911699         0.819736
 C        -2.253015         1.414114         0.421368
 H        -2.859726         1.211263         3.680713
 H        -0.089819         2.113518         2.528349
 H        -0.825230         0.533725         2.672656
 H         0.116210         0.203046        -0.854178
 H         1.004926         2.614330         0.089558
 H        -0.204900         2.375246        -1.202468
 H        -0.644020         4.130580         1.232268
 H        -1.230984         4.467483        -0.359317
 H        -3.397508         3.432955         0.716172
 H        -2.847261         0.607435        -0.048765
