19
Iteration:   266charge 0 multiplicity 1
 O        -3.051495         1.726737         2.984886
 C        -2.202455         1.983831         1.891647
 C        -0.867070         1.465436         2.059720
 C        -0.717109         1.269892         0.536278
 O        -0.159273         0.003718         0.166415
 C        -0.063579         2.513159        -0.096261
 C        -1.054106         3.683363         0.288511
 C        -2.362911         2.989695         0.806242
 C        -2.295616         1.547560         0.436776
 H        -3.437977         2.524032         3.398801
 H        -0.277162         2.286039         2.543129
 H        -0.685275         0.539107         2.733351
 H        -0.836493        -0.568764        -0.190815
 H         0.920069         2.576776         0.434448
 H         0.155528         2.370342        -1.174366
 H        -0.598556         4.205144         1.138114
 H        -1.237747         4.306495        -0.601534
 H        -3.375041         3.389725         0.812082
 H        -3.073032         1.119387        -0.226833
