19
Iteration:  2297
 O        -2.947959         1.973616         3.068109
 C        -2.008855         2.026502         2.004743
 C        -0.766527         1.366756         2.136681
 C        -0.773160         1.186783         0.482106
 O        -0.284106         0.097332        -0.185510
 C        -0.139481         2.536568        -0.043835
 C        -1.237158         3.614131         0.171182
 C        -2.372008         2.952124         0.801418
 C        -2.330227         1.485589         0.653390
 H        -3.116364         1.020652         3.344479
 H        -0.015966         1.989432         2.639763
 H        -0.834354         0.327229         2.617900
 H         0.510180        -0.193947         0.300675
 H         0.750594         2.682226         0.569131
 H         0.042396         2.432237        -1.112257
 H        -0.758302         4.272602         0.834582
 H        -1.363289         4.132919        -0.771777
 H        -3.436769         3.260411         0.897154
 H        -3.116350         0.809651         0.442395
