19
Iteration:  4209charge 0 multiplicity 1
 O        -3.067127         1.926522         3.110452
 C        -2.221345         1.877544         1.995779
 C        -0.756149         1.368642         2.000285
 C        -0.773444         1.294757         0.423986
 O        -0.226673         0.076817         0.011889
 C        -0.052422         2.561965        -0.080129
 C        -1.109691         3.622076         0.362000
 C        -2.328958         2.884915         0.895784
 C        -2.304976         1.442867         0.431270
 H        -3.827961         2.440078         2.895426
 H        -0.144178         2.102008         2.591398
 H        -0.456563         0.379114         2.411853
 H         0.713542         0.058985        -0.122896
 H         0.973958         2.565046         0.241831
 H        -0.013999         2.389640        -1.195027
 H        -0.717002         4.361074         1.018954
 H        -1.464830         4.305790        -0.433284
 H        -3.281986         3.470960         0.840347
 H        -3.097682         1.112455        -0.186361
