19
Iteration:  2974charge 0 multiplicity 1
 O        -3.071331         1.838031         2.950417
 C        -2.041775         1.831047         1.970626
 C        -0.568704         1.569446         1.980279
 C        -0.734386         1.299210         0.483086
 O        -0.355169        -0.041137         0.264319
 C        -0.198880         2.599247        -0.247597
 C        -1.187335         3.702209         0.367277
 C        -2.382328         2.914036         0.910301
 C        -2.224046         1.441505         0.528927
 H        -3.885101         1.518159         2.571292
 H         0.117279         2.350747         2.363172
 H        -0.210797         0.572912         2.419513
 H        -0.419992        -0.154194        -0.685455
 H         0.844310         2.815806         0.051610
 H        -0.194988         2.562960        -1.384424
 H        -0.618252         4.243790         1.111242
 H        -1.154077         4.467359        -0.387989
 H        -3.263013         3.430987         1.128371
 H        -2.922458         1.031888        -0.161846
