19
Iteration:  4400charge 0 multiplicity 1
 O        -3.146393         1.869661         3.016972
 C        -2.144061         2.018405         1.999561
 C        -0.805756         1.410722         2.100533
 C        -0.712778         1.262207         0.488105
 O        -0.222560         0.028571        -0.039519
 C        -0.165708         2.568948        -0.147457
 C        -1.089159         3.655733         0.324520
 C        -2.280809         2.943957         0.864951
 C        -2.288111         1.512629         0.531166
 H        -2.961332         0.900335         3.259265
 H         0.098979         1.834412         2.616272
 H        -0.811224         0.325447         2.337479
 H         0.617038        -0.066523         0.443713
 H         0.909316         2.774140         0.053557
 H        -0.445851         2.330084        -1.265270
 H        -0.714879         4.296533         1.193251
 H        -1.387521         4.174780        -0.564121
 H        -3.197280         3.601113         0.719765
 H        -2.953170         0.872038        -0.009544
