19
Iteration:  1561
 O        -3.126769         1.972462         3.048851
 C        -2.177974         1.874837         1.971824
 C        -0.836534         1.372689         2.153660
 C        -0.681990         1.254575         0.565226
 O        -0.233818         0.067940        -0.115125
 C        -0.086067         2.549110        -0.077907
 C        -1.118251         3.572368         0.122710
 C        -2.279167         2.994070         0.960427
 C        -2.316670         1.474130         0.513197
 H        -3.095936         1.192645         3.653990
 H        -0.168299         1.901940         2.819718
 H        -1.022441         0.301171         2.611996
 H         0.660941         0.370516        -0.042211
 H         0.808111         2.944091         0.514022
 H         0.171415         2.267475        -1.088553
 H        -0.500630         4.428789         0.422379
 H        -1.597563         3.835329        -0.875761
 H        -3.039719         3.786937         1.077750
 H        -3.072208         1.103055        -0.183972
