19
Iteration:  4053
 O        -3.198313         1.678176         2.977565
 C        -2.226244         1.929822         1.975578
 C        -0.745736         1.498298         2.106871
 C        -0.696793         1.267132         0.487157
 O        -0.184630        -0.000744         0.141965
 C        -0.100120         2.512236        -0.281968
 C        -1.052363         3.654322         0.345910
 C        -2.277966         3.041490         0.943122
 C        -2.359406         1.509936         0.493442
 H        -3.144576         2.571296         3.432089
 H        -0.126910         2.389814         2.428726
 H        -0.456521         0.508702         2.699688
 H         0.125940        -0.115811        -0.793405
 H         1.012214         2.841160        -0.155310
 H        -0.245923         2.532860        -1.369159
 H        -0.490718         4.213562         1.155732
 H        -1.255696         4.307965        -0.498178
 H        -3.196496         3.569784         0.911782
 H        -3.175901         1.243651        -0.195287
