19
Iteration:  2641
 O        -3.061741         1.862845         3.204005
 C        -2.218113         1.881723         1.995793
 C        -0.783963         1.509337         2.205329
 C        -0.752801         1.246152         0.451024
 O        -0.274084         0.039489        -0.077914
 C        -0.179628         2.517916        -0.304204
 C        -1.006300         3.607176         0.223762
 C        -2.222435         3.016929         0.926902
 C        -2.306508         1.469807         0.590210
 H        -3.748069         1.158634         2.972901
 H        -0.034656         2.335183         2.522030
 H        -0.767360         0.565973         2.756606
 H         0.483905         0.407834        -0.595042
 H         0.871044         2.572392         0.021784
 H        -0.230630         2.163968        -1.348918
 H        -0.497816         4.379293         0.843752
 H        -1.374125         4.112924        -0.664257
 H        -3.174218         3.552605         0.930478
 H        -3.098061         1.200830        -0.149680
