19
Iteration:  2508
 O        -3.089828         2.188441         3.003409
 C        -1.994834         1.931414         2.109419
 C        -0.693905         1.182743         2.039292
 C        -0.709979         1.236234         0.460412
 O        -0.188733         0.072387        -0.088477
 C        -0.171149         2.570306        -0.124082
 C        -1.286389         3.657612         0.248530
 C        -2.334391         2.920245         0.960838
 C        -2.247831         1.443478         0.579220
 H        -3.448559         1.350114         3.473692
 H         0.189598         1.569955         2.720050
 H        -0.872906         0.122748         2.375613
 H        -0.722293        -0.605246        -0.505923
 H         0.771332         2.789823         0.371405
 H         0.019149         2.366735        -1.213950
 H        -1.044264         4.534382         0.831981
 H        -1.570896         4.099814        -0.689195
 H        -3.317348         3.373889         1.097552
 H        -2.855377         0.815247        -0.022026
