19
Iteration:  2017charge 0 multiplicity 1
 O        -3.241283         1.801133         3.024486
 C        -2.167520         1.954030         2.053706
 C        -0.752929         1.524600         2.160037
 C        -0.704798         1.256246         0.539423
 O        -0.171167         0.123333        -0.002528
 C        -0.181270         2.477751        -0.349101
 C        -0.960365         3.624481         0.258840
 C        -2.295247         2.959076         0.948650
 C        -2.272669         1.502967         0.509737
 H        -2.800324         1.558855         3.815791
 H         0.067120         2.312656         2.226507
 H        -0.610407         0.584138         2.674451
 H        -0.671559        -0.646437         0.432387
 H         0.842338         2.756849        -0.461343
 H        -0.607070         2.301131        -1.384772
 H        -0.579416         4.187568         1.117139
 H        -1.308002         4.179232        -0.575372
 H        -3.291223         3.375932         0.829760
 H        -3.003230         0.891272        -0.118934
