19
Iteration:  4711charge 0 multiplicity 1
 O        -3.067706         2.038090         3.008749
 C        -2.137690         1.928419         1.974184
 C        -0.801273         1.251714         2.051813
 C        -0.751731         1.230328         0.493250
 O        -0.072491         0.036425         0.010721
 C        -0.112023         2.554007         0.002642
 C        -1.144073         3.689395         0.255255
 C        -2.408947         2.937038         0.937362
 C        -2.337720         1.501799         0.482590
 H        -3.192483         1.106608         3.313053
 H        -0.005517         1.890980         2.442170
 H        -0.882659         0.220623         2.359468
 H        -0.417463        -0.155575        -0.856554
 H         0.836270         2.869703         0.461100
 H         0.091484         2.625717        -1.096901
 H        -0.629845         4.626611         0.661633
 H        -1.483634         4.128400        -0.699878
 H        -3.373933         3.494891         1.101464
 H        -2.951754         0.771550         0.006233
