19
Iteration:  3516charge 0 multiplicity 1
 O        -3.159487         1.699844         2.902322
 C        -2.162796         1.917714         1.970160
 C        -0.619745         1.609701         2.036297
 C        -0.725036         1.365707         0.470825
 O        -0.349464        -0.104270         0.297664
 C        -0.262445         2.566507        -0.336362
 C        -1.076538         3.729674         0.331730
 C        -2.249056         2.977935         0.922780
 C        -2.191466         1.418315         0.519777
 H        -2.875274         2.101741         3.694244
 H        -0.012285         2.342424         2.555053
 H        -0.429983         0.599873         2.527124
 H         0.111993        -0.030906        -0.579846
 H         0.862781         2.695888        -0.286803
 H        -0.529972         2.532959        -1.369709
 H        -0.420930         4.203165         1.102134
 H        -1.360746         4.582212        -0.273753
 H        -3.319324         3.343866         0.841089
 H        -3.024828         0.937785        -0.024108
