19
Iteration:  2060charge 0 multiplicity 1
 O        -3.138492         1.771239         2.911866
 C        -2.112580         1.986493         2.023598
 C        -0.604169         1.431227         2.014262
 C        -0.760506         1.293021         0.488935
 O        -0.203328         0.034664         0.191296
 C        -0.230018         2.516980        -0.301801
 C        -1.064837         3.661102         0.400916
 C        -2.426922         2.994161         0.839797
 C        -2.241673         1.490883         0.577356
 H        -3.039689         2.457670         3.549070
 H         0.268621         2.067021         2.487990
 H        -0.609808         0.546935         2.701074
 H        -0.603353        -0.252815        -0.693983
 H         0.834596         2.415591        -0.243818
 H        -0.629837         2.314076        -1.341351
 H        -0.413670         4.251982         1.103530
 H        -1.360531         4.365517        -0.368010
 H        -3.332243         3.594389         0.902214
 H        -2.935002         0.732469         0.102055
