19
Iteration:  1911charge 0 multiplicity 1
 O        -3.182474         1.972550         2.956382
 C        -2.094497         2.028719         2.036663
 C        -0.740960         1.428021         2.132919
 C        -0.770967         1.198444         0.545609
 O        -0.171015         0.035069        -0.101112
 C        -0.166755         2.426106        -0.117060
 C        -1.087588         3.656922         0.250225
 C        -2.404729         2.997901         0.949044
 C        -2.258214         1.455560         0.596872
 H        -3.166609         1.085820         3.303685
 H         0.318174         1.828251         2.376783
 H        -0.710354         0.440332         2.702259
 H         0.548820         0.350246        -0.753169
 H         0.938029         2.654095         0.156426
 H        -0.193680         2.186755        -1.200850
 H        -0.404127         4.339152         0.838386
 H        -1.432822         4.336761        -0.599176
 H        -3.390966         3.429049         0.839021
 H        -3.153052         0.811541         0.285271
