19
Iteration:  3383
 O        -3.053347         1.847519         3.047306
 C        -2.169105         1.995053         1.990297
 C        -0.701341         1.442102         2.086094
 C        -0.797319         1.218912         0.434557
 O        -0.108986        -0.012118         0.024341
 C        -0.160704         2.489180        -0.150719
 C        -1.078837         3.700229         0.271334
 C        -2.387793         2.967176         0.863786
 C        -2.404069         1.408550         0.654545
 H        -3.799823         2.388412         2.915808
 H         0.055739         2.172617         2.499202
 H        -0.676302         0.474724         2.544038
 H         0.343477         0.352208        -0.790450
 H         0.836176         2.895246         0.201650
 H        -0.081767         2.449017        -1.277616
 H        -0.581487         4.354723         1.040224
 H        -1.279143         4.359820        -0.589206
 H        -3.197802         3.628552         0.641500
 H        -3.209177         0.768464         0.240900
