19
Iteration:  4871
 O        -3.132501         1.965629         2.989323
 C        -2.164524         1.844935         1.967159
 C        -0.700770         1.431103         2.068246
 C        -0.711368         1.324489         0.503132
 O        -0.192851         0.055147        -0.012104
 C        -0.103332         2.555388        -0.041065
 C        -1.117483         3.660299         0.315035
 C        -2.336625         2.929462         0.875457
 C        -2.255922         1.414857         0.531936
 H        -3.527977         1.084192         3.130536
 H        -0.042995         2.040979         2.638416
 H        -0.731665         0.314753         2.205137
 H        -0.723303         0.020037        -0.826715
 H         0.839800         2.600924         0.503872
 H         0.063558         2.502140        -1.155529
 H        -0.701390         4.521735         0.875276
 H        -1.442632         4.224853        -0.583251
 H        -3.307656         3.453907         1.057934
 H        -3.111973         0.860679         0.245038
