19
Iteration:  1044
 O        -2.915281         1.965535         3.198895
 C        -2.274169         1.961426         1.909793
 C        -0.895678         1.431177         2.069488
 C        -0.793374         1.187758         0.505528
 O        -0.110071         0.087398        -0.071812
 C        -0.120666         2.521445        -0.106352
 C        -1.091285         3.610513         0.377501
 C        -2.347317         2.928148         0.730025
 C        -2.263362         1.468671         0.435868
 H        -3.885140         2.176084         3.023998
 H        -0.137280         1.953305         2.575633
 H        -0.990562         0.374333         2.474196
 H        -0.314481        -0.692438         0.525693
 H         0.897700         2.556940         0.327110
 H         0.049798         2.397264        -1.199728
 H        -0.727149         4.023286         1.324518
 H        -1.269676         4.507324        -0.192734
 H        -3.297869         3.425078         0.556368
 H        -3.056869         1.005010        -0.151585
