19
Iteration:   327charge 0 multiplicity 1
 O        -3.157885         2.004248         2.937074
 C        -2.169174         1.984858         1.930123
 C        -0.737962         1.312850         2.095303
 C        -0.679102         1.233974         0.550575
 O        -0.132780         0.113195        -0.058888
 C        -0.193561         2.469068        -0.061596
 C        -1.083079         3.606572         0.402837
 C        -2.297249         2.954451         0.844918
 C        -2.282720         1.466020         0.505817
 H        -4.045338         1.812996         2.521233
 H        -0.059349         1.893256         2.728390
 H        -0.942036         0.396873         2.537781
 H         0.222756        -0.460961         0.617158
 H         0.838547         2.571523         0.234443
 H        -0.320898         2.376110        -1.150878
 H        -0.611655         4.446886         0.937985
 H        -1.277739         4.217877        -0.484664
 H        -3.263571         3.459924         1.015601
 H        -3.148086         0.957026         0.132766
