19
Iteration:  2196charge 0 multiplicity 1
 O        -3.017206         1.803992         3.105477
 C        -2.291891         1.952555         1.951278
 C        -0.827492         1.539017         2.057222
 C        -0.736629         1.295415         0.464431
 O        -0.204142         0.042378         0.046254
 C        -0.176248         2.518544        -0.273671
 C        -1.027064         3.621487         0.309513
 C        -2.286351         2.968222         0.868974
 C        -2.307082         1.472222         0.550945
 H        -2.465005         1.298707         3.747480
 H        -0.116666         2.358178         2.439511
 H        -0.711301         0.598564         2.672950
 H        -0.955188        -0.528567        -0.164122
 H         0.919841         2.712086        -0.095418
 H        -0.299755         2.397050        -1.352016
 H        -0.341410         4.046825         1.052166
 H        -1.022968         4.534995        -0.349305
 H        -3.088951         3.673717         0.755779
 H        -3.124949         0.835267         0.083679
