19
Iteration:  3443
 O        -3.010405         1.954146         3.098838
 C        -2.169045         1.947434         2.022123
 C        -0.746861         1.345511         1.995047
 C        -0.660003         1.243529         0.481546
 O        -0.128415         0.025450         0.037183
 C        -0.130524         2.546711         0.008307
 C        -1.228827         3.658845         0.212420
 C        -2.378793         2.911865         0.834296
 C        -2.372381         1.432053         0.454329
 H        -3.168651         2.900450         3.371220
 H         0.021502         1.734526         2.670005
 H        -0.878520         0.260162         2.338328
 H        -0.145950        -0.041008        -0.941261
 H         0.686028         3.024465         0.557542
 H         0.361718         2.379502        -0.996216
 H        -0.971893         4.504037         0.862009
 H        -1.538514         4.125315        -0.743935
 H        -3.311277         3.478838         1.013190
 H        -3.169507         0.800343        -0.036666
