19
Iteration:   537charge 0 multiplicity 1
 O        -3.230856         1.793371         2.964210
 C        -2.227649         1.927830         1.985552
 C        -0.666951         1.478921         2.117210
 C        -0.670407         1.245614         0.619005
 O        -0.264907         0.028965        -0.005736
 C        -0.051992         2.456272        -0.069890
 C        -1.041244         3.694505         0.266481
 C        -2.291053         2.975481         0.810253
 C        -2.264547         1.529451         0.601507
 H        -4.047814         2.001869         2.403794
 H         0.192681         1.998443         2.647983
 H        -0.768224         0.515035         2.536074
 H        -0.458743         0.192621        -0.936072
 H         0.956206         2.740980         0.201949
 H        -0.045080         2.234974        -1.108114
 H        -0.560000         4.359682         1.042402
 H        -1.116120         4.377467        -0.557392
 H        -3.191879         3.590460         0.733210
 H        -3.041640         1.004470         0.111075
