19
Iteration:  3632charge 0 multiplicity 1
 O        -3.031418         1.904714         3.033541
 C        -2.161069         1.998123         1.951610
 C        -0.724980         1.340677         2.112656
 C        -0.692305         1.268013         0.535501
 O        -0.184525         0.024297        -0.051692
 C        -0.144874         2.551504         0.013883
 C        -1.167590         3.669764         0.198902
 C        -2.438314         2.927700         0.759817
 C        -2.314338         1.393870         0.601933
 H        -2.986971         2.673180         3.546715
 H         0.012834         2.016338         2.632982
 H        -0.823407         0.468015         2.676890
 H        -0.299768         0.099020        -1.031868
 H         0.735957         2.782900         0.607745
 H         0.438791         2.390600        -0.994009
 H        -0.826930         4.404507         0.926645
 H        -1.226827         4.229918        -0.745525
 H        -3.446041         3.504058         0.813977
 H        -2.980466         0.641960         0.127036
