19
Iteration:  1897charge 0 multiplicity 1
 O        -3.174754         1.879657         2.947800
 C        -2.158412         2.005594         1.996418
 C        -0.687003         1.410687         2.037119
 C        -0.724222         1.230397         0.521832
 O        -0.216837        -0.027440         0.086231
 C        -0.159455         2.493795        -0.208483
 C        -1.102504         3.719272         0.303208
 C        -2.262474         3.009647         0.900189
 C        -2.327818         1.498284         0.562146
 H        -2.994990         1.045548         3.504983
 H         0.063181         2.135908         2.558849
 H        -0.748826         0.486227         2.548607
 H         0.159965         0.191196        -0.760184
 H         0.920518         2.632642        -0.026095
 H        -0.298675         2.352076        -1.321026
 H        -0.677461         4.376197         1.092095
 H        -1.394245         4.321520        -0.537957
 H        -3.199442         3.553359         1.037621
 H        -3.085113         0.736797         0.372668
