19
Iteration:  1126charge 0 multiplicity 1
 O        -3.198578         1.671219         2.937917
 C        -2.144264         2.008617         2.015592
 C        -0.723383         1.478095         2.191580
 C        -0.728393         1.297295         0.527632
 O        -0.239022         0.059194         0.059761
 C        -0.196137         2.463340        -0.237377
 C        -0.967361         3.727940         0.216808
 C        -2.293727         3.043829         0.860933
 C        -2.247973         1.489622         0.544859
 H        -2.924723         1.782203         3.836342
 H         0.080390         2.171936         2.661521
 H        -0.689015         0.489366         2.662537
 H        -0.973289        -0.585047         0.276244
 H         0.873858         2.555018         0.044387
 H        -0.294420         2.248293        -1.310840
 H        -0.425696         4.426328         0.901022
 H        -1.409835         4.294387        -0.632732
 H        -3.265966         3.518457         0.730577
 H        -2.933762         1.183068        -0.212982
