19
Iteration:  3605
 O        -3.131548         2.032220         2.921939
 C        -2.087344         1.980790         1.973280
 C        -0.672695         1.204645         2.051424
 C        -0.705548         1.257349         0.513832
 O        -0.172685         0.067169         0.003214
 C        -0.174340         2.584686        -0.064933
 C        -1.250814         3.695569         0.284958
 C        -2.338975         2.864759         0.913387
 C        -2.244655         1.374269         0.596555
 H        -3.191099         2.862656         3.319985
 H         0.126941         1.803507         2.508104
 H        -0.673465         0.190368         2.618581
 H        -0.575779        -0.302452        -0.820940
 H         0.829593         2.840800         0.390385
 H         0.172542         2.435310        -1.037318
 H        -0.939934         4.559319         0.917342
 H        -1.537756         4.137580        -0.673799
 H        -3.199585         3.439426         1.009348
 H        -3.027820         0.774768         0.106337
