19
Iteration:  2291
 O        -2.956844         1.942420         3.060002
 C        -2.044116         2.041362         2.013693
 C        -0.724885         1.381384         2.209737
 C        -0.806255         1.224093         0.511745
 O        -0.267413         0.121013        -0.213854
 C        -0.140813         2.512051        -0.058948
 C        -1.166488         3.598801         0.134922
 C        -2.393601         2.957429         0.825596
 C        -2.344721         1.455794         0.668515
 H        -3.245287         1.066526         3.184022
 H         0.159850         1.942018         2.579665
 H        -0.915432         0.453343         2.680850
 H         0.616926        -0.167554         0.154082
 H         0.865846         2.511632         0.411312
 H        -0.095350         2.214655        -1.134963
 H        -0.827759         4.451080         0.843462
 H        -1.459984         4.164814        -0.778857
 H        -3.412247         3.340680         0.913722
 H        -3.226623         0.846214         0.300814
