19
Iteration:  4877charge 0 multiplicity 1
 O        -3.093164         1.930180         3.000787
 C        -2.192255         1.871228         1.972237
 C        -0.739219         1.376730         2.108171
 C        -0.681092         1.327024         0.499173
 O        -0.243504         0.061703        -0.002094
 C        -0.101802         2.591686        -0.008439
 C        -1.143445         3.657536         0.264879
 C        -2.287224         2.924468         0.870326
 C        -2.254213         1.459237         0.508831
 H        -3.562723         1.159691         3.256238
 H         0.026696         2.086607         2.575653
 H        -0.592136         0.325619         2.355032
 H        -0.658968         0.021175        -0.867738
 H         0.916165         2.680899         0.455196
 H        -0.014443         2.605056        -1.073359
 H        -0.743120         4.456081         0.909197
 H        -1.410410         4.137465        -0.686990
 H        -3.289193         3.293638         0.708481
 H        -3.068544         0.752047         0.174408
