19
Iteration:  4907charge 0 multiplicity 1
 O        -3.021116         1.815994         3.051504
 C        -2.174471         1.974891         1.935722
 C        -0.809237         1.392232         2.120822
 C        -0.682861         1.308522         0.555827
 O        -0.272962        -0.036514         0.057318
 C        -0.099477         2.580910        -0.000921
 C        -1.171583         3.753796         0.176507
 C        -2.340865         2.982058         0.839212
 C        -2.274525         1.517366         0.419963
 H        -2.957197         0.934165         3.479662
 H        -0.006926         1.705458         2.828728
 H        -0.816874         0.249154         2.272727
 H        -0.038219         0.173114        -0.882499
 H         0.844535         2.686463         0.512830
 H         0.164432         2.592890        -1.097875
 H        -0.679665         4.511357         0.913279
 H        -1.397609         4.136742        -0.809297
 H        -3.341890         3.439188         0.913216
 H        -3.010967         0.864258        -0.070317
