19
Iteration:  4199charge 0 multiplicity 1
 O        -3.008798         1.969707         3.118318
 C        -2.251853         1.785573         1.983652
 C        -0.819429         1.359342         2.098983
 C        -0.744246         1.328197         0.546555
 O        -0.227023         0.071526        -0.013499
 C        -0.047544         2.558841        -0.133018
 C        -1.053280         3.641980         0.331010
 C        -2.364958         2.829394         0.926715
 C        -2.337331         1.503325         0.343970
 H        -3.806959         2.490920         2.877483
 H         0.087416         1.955490         2.482607
 H        -0.778509         0.284546         2.308775
 H         0.614061         0.427315        -0.260716
 H         0.873910         2.771103         0.303888
 H         0.049306         2.662777        -1.259724
 H        -0.639637         4.328567         1.001749
 H        -1.408076         4.066320        -0.618847
 H        -3.384107         3.304768         0.831850
 H        -2.990570         0.841353        -0.147615
