19
Iteration:  3796
 O        -3.070244         1.934945         3.050454
 C        -2.205621         1.936819         1.983554
 C        -0.816939         1.316796         2.146088
 C        -0.676818         1.306720         0.512091
 O        -0.281497         0.133853        -0.154922
 C        -0.060050         2.600025         0.008590
 C        -1.134866         3.634372         0.162328
 C        -2.351758         2.897919         0.829112
 C        -2.226563         1.362606         0.590279
 H        -3.234910         2.848283         3.480807
 H         0.154694         1.761678         2.737864
 H        -1.026701         0.344189         2.493094
 H         0.479792        -0.361531         0.230899
 H         0.858443         2.862222         0.434933
 H         0.134409         2.323915        -1.022972
 H        -0.898566         4.507046         0.719373
 H        -1.371040         3.915036        -0.867433
 H        -3.385512         3.206079         0.766019
 H        -2.993767         0.709480         0.270134
