19
Iteration:  2990charge 0 multiplicity 1
 O        -2.952260         1.765573         2.982875
 C        -2.103696         1.961204         1.903293
 C        -0.624681         1.525243         2.041534
 C        -0.743467         1.307638         0.483861
 O        -0.261670         0.006769         0.201162
 C        -0.184372         2.554461        -0.159044
 C        -1.108782         3.675800         0.341390
 C        -2.377275         2.949242         0.839077
 C        -2.408628         1.463020         0.526099
 H        -3.901387         1.814454         2.615252
 H         0.107269         2.299899         2.311024
 H        -0.597557         0.590035         2.528157
 H        -0.132417        -0.211629        -0.710396
 H         0.902049         2.639266         0.043365
 H        -0.221168         2.493868        -1.225618
 H        -0.628688         4.180031         1.236062
 H        -1.617280         4.345834        -0.382399
 H        -3.364646         3.559015         0.858653
 H        -3.084000         0.567179         0.437567
