19
Iteration:  1031charge 0 multiplicity 1
 O        -2.929154         1.972406         3.084807
 C        -2.226916         2.002107         1.947292
 C        -0.867681         1.297756         2.012555
 C        -0.777693         1.283512         0.482269
 O        -0.126621         0.136723        -0.019298
 C        -0.174485         2.463464        -0.049537
 C        -1.024337         3.643967         0.369497
 C        -2.329247         2.919574         0.857564
 C        -2.380572         1.413767         0.399881
 H        -3.869791         2.160517         3.031708
 H        -0.163945         2.025814         2.381432
 H        -0.849791         0.419564         2.631046
 H         0.083348        -0.487503         0.685894
 H         0.812673         2.693142         0.352842
 H        -0.255613         2.334882        -1.154630
 H        -0.478787         4.261691         1.117918
 H        -1.211628         4.231587        -0.514146
 H        -3.272334         3.419404         0.650625
 H        -3.101378         0.787843        -0.105694
