19
Iteration:  4467
 O        -3.150582         1.794750         2.926002
 C        -2.154014         2.009960         1.967841
 C        -0.656424         1.551530         2.012347
 C        -0.792742         1.276874         0.466724
 O        -0.298535        -0.114278         0.056221
 C        -0.140571         2.538595        -0.141122
 C        -1.121400         3.691576         0.388298
 C        -2.324759         3.016776         0.921539
 C        -2.223935         1.499876         0.580408
 H        -3.508987         0.932976         2.951136
 H         0.037421         2.319297         2.419048
 H        -0.356372         0.525795         2.454188
 H         0.675169        -0.073093        -0.130043
 H         0.995275         2.712323         0.128252
 H        -0.319255         2.591732        -1.322168
 H        -0.530077         4.108934         1.306123
 H        -1.330852         4.454118        -0.367493
 H        -3.258025         3.550751         0.878150
 H        -2.842107         0.842928        -0.021518
