19
Iteration:  4358
 O        -3.086819         2.098055         3.018998
 C        -2.181568         1.859749         2.013004
 C        -0.769437         1.386936         2.064416
 C        -0.706513         1.252224         0.537920
 O        -0.227318         0.054781        -0.104059
 C        -0.131689         2.547551        -0.099187
 C        -1.118407         3.650902         0.410442
 C        -2.331048         2.839053         0.807199
 C        -2.249310         1.437363         0.479059
 H        -3.570196         1.257800         3.287056
 H        -0.029386         2.080458         2.543209
 H        -0.726786         0.395872         2.676604
 H         0.675516         0.239277        -0.314529
 H         0.872903         2.618384         0.436773
 H        -0.251449         2.618917        -1.121773
 H        -0.750761         4.343890         1.232578
 H        -1.668536         4.041041        -0.438695
 H        -3.350790         3.281956         1.019413
 H        -2.897591         0.875751        -0.157328
