19
Iteration:   996
 O        -3.182892         1.828035         3.022631
 C        -2.102196         1.989521         1.984891
 C        -0.760591         1.328400         2.124352
 C        -0.672962         1.264825         0.520105
 O        -0.273606         0.013729        -0.028748
 C        -0.178523         2.583234        -0.211859
 C        -1.014620         3.693654         0.250720
 C        -2.311010         2.973317         0.959717
 C        -2.255838         1.489183         0.545149
 H        -3.800591         2.577165         2.918037
 H         0.078403         1.944816         2.572535
 H        -0.867613         0.381957         2.566853
 H         0.234504        -0.569205         0.542424
 H         0.890113         2.832119         0.016238
 H        -0.002054         2.421569        -1.291764
 H        -0.608568         4.526090         0.889715
 H        -1.359876         4.301424        -0.619804
 H        -3.356391         3.285347         0.802801
 H        -2.935920         0.838759        -0.012852
