19
Iteration:  4504
 O        -3.120182         1.967446         3.072049
 C        -2.223568         1.870167         2.000170
 C        -0.793516         1.336530         2.104976
 C        -0.710595         1.344886         0.569546
 O        -0.251011         0.151687        -0.043078
 C        -0.192561         2.514073        -0.190659
 C        -1.052406         3.611245         0.284776
 C        -2.288275         2.933794         0.863620
 C        -2.194021         1.442399         0.513596
 H        -3.421110         1.085637         3.119924
 H        -0.120269         1.823823         2.820488
 H        -0.924995         0.301833         2.370891
 H         0.684151         0.511483        -0.055151
 H         0.880350         2.503433        -0.106659
 H        -0.350996         2.207239        -1.158543
 H        -0.630156         4.210445         0.993382
 H        -1.216726         4.323960        -0.521968
 H        -3.244641         3.478936         0.858485
 H        -2.840611         0.896409        -0.171281
