19
Iteration:  3481charge 0 multiplicity 1
 O        -3.162796         1.760107         3.022475
 C        -2.102399         1.980025         1.954809
 C        -0.714902         1.436674         2.117568
 C        -0.706145         1.281810         0.602272
 O        -0.128873         0.052617         0.071724
 C        -0.210642         2.511125        -0.194760
 C        -1.105153         3.690224         0.148036
 C        -2.295166         2.983237         0.850432
 C        -2.378357         1.451853         0.590554
 H        -3.064688         2.381422         3.699208
 H        -0.006230         2.083115         2.642623
 H        -0.677806         0.425806         2.428162
 H        -0.401842         0.154501        -0.895316
 H         0.853232         2.566423         0.070547
 H        -0.298181         2.307426        -1.213540
 H        -0.473181         4.159658         0.930013
 H        -1.397295         4.358780        -0.685917
 H        -3.219828         3.576346         0.937764
 H        -3.072507         0.834865         0.119494
