19
Iteration:   597
 O        -3.103326         1.927605         3.045690
 C        -2.212202         1.819138         1.904077
 C        -0.848282         1.397237         2.109210
 C        -0.795440         1.255274         0.484283
 O        -0.197024         0.043822         0.165603
 C        -0.139725         2.495569        -0.201391
 C        -0.928795         3.703594         0.456852
 C        -2.280263         3.017782         0.785645
 C        -2.297397         1.532469         0.369669
 H        -3.532835         1.046278         3.184756
 H        -0.112454         2.004300         2.592811
 H        -0.865120         0.385035         2.641300
 H         0.032161        -0.127337        -0.784931
 H         0.958246         2.639775        -0.043277
 H        -0.323000         2.639140        -1.321806
 H        -0.517919         4.035043         1.409674
 H        -1.136480         4.581799        -0.225730
 H        -3.237133         3.509569         0.897662
 H        -3.013002         0.972671        -0.262760
