19
Iteration:  2748charge 0 multiplicity 1
 O        -3.080284         1.721862         3.100275
 C        -2.130292         2.006774         1.992709
 C        -0.728995         1.547533         2.063822
 C        -0.773450         1.247716         0.462161
 O        -0.153228         0.089326        -0.072115
 C        -0.162847         2.463414        -0.229587
 C        -0.968400         3.634636         0.352425
 C        -2.345074         2.972310         0.883721
 C        -2.432792         1.486398         0.628971
 H        -3.708170         2.518732         3.332918
 H        -0.003421         2.279771         2.286230
 H        -0.410810         0.650660         2.541433
 H        -0.849389        -0.538685        -0.425764
 H         0.891163         2.449040         0.061975
 H        -0.199536         2.367672        -1.338120
 H        -0.469025         4.174999         1.178490
 H        -1.240416         4.299309        -0.514432
 H        -3.179688         3.662345         0.650548
 H        -3.165557         0.724882         0.291476
