19
Iteration:  4565charge 0 multiplicity 1
 O        -3.053805         1.930619         3.073339
 C        -2.155039         1.896203         1.918154
 C        -0.738062         1.403640         2.107187
 C        -0.756088         1.338880         0.563304
 O        -0.386478         0.086284        -0.037547
 C        -0.010329         2.565160        -0.112198
 C        -1.128692         3.668220         0.318213
 C        -2.388602         2.866885         0.771610
 C        -2.221082         1.446267         0.450321
 H        -2.991192         1.068897         3.455995
 H        -0.034782         2.138763         2.555241
 H        -0.741369         0.372404         2.623255
 H         0.469125        -0.237930         0.357013
 H         0.946567         2.873072         0.354082
 H         0.006521         2.428507        -1.288194
 H        -0.851466         4.229644         1.340086
 H        -1.351179         4.396815        -0.465085
 H        -3.322227         3.315034         0.741939
 H        -2.898089         0.805889        -0.090687
