19
Iteration:  3979charge 0 multiplicity 1
 O        -3.102539         1.958534         3.143044
 C        -2.277339         1.936619         1.975886
 C        -0.752360         1.350530         2.026461
 C        -0.788696         1.239413         0.506855
 O        -0.179665         0.084419        -0.114643
 C        -0.034388         2.550856         0.058557
 C        -1.094572         3.623855         0.266525
 C        -2.377200         2.869950         0.779535
 C        -2.304361         1.413296         0.535687
 H        -3.261385         2.861282         3.299687
 H         0.079243         1.954411         2.422708
 H        -0.585987         0.357932         2.518168
 H         0.649421         0.307616        -0.526226
 H         0.824283         2.553239         0.728845
 H         0.363228         2.554869        -1.004396
 H        -0.896718         4.451156         0.975535
 H        -1.496931         4.054671        -0.658093
 H        -3.319219         3.351360         0.630020
 H        -2.880420         0.923060        -0.269134
