19
Iteration:  4901
 O        -3.028082         1.830275         3.070227
 C        -2.174596         1.987509         1.939674
 C        -0.774652         1.360938         2.147068
 C        -0.694828         1.275103         0.596660
 O        -0.290770        -0.034032         0.046172
 C        -0.064952         2.623739        -0.034625
 C        -1.176682         3.757475         0.191296
 C        -2.361165         2.967730         0.798509
 C        -2.246207         1.480497         0.404120
 H        -3.071347         0.849296         3.424474
 H         0.044688         1.849497         2.755884
 H        -0.931788         0.339357         2.353740
 H        -0.195583         0.363480        -0.867182
 H         0.902798         2.679469         0.570903
 H         0.165114         2.497762        -1.069942
 H        -0.729864         4.478869         0.790355
 H        -1.457416         4.223000        -0.788698
 H        -3.311673         3.394277         1.127775
 H        -2.976278         1.028315        -0.304312
