19
Iteration:  3860
 O        -3.129444         1.719058         2.987476
 C        -2.149697         1.996676         1.952209
 C        -0.707130         1.367568         2.069212
 C        -0.737038         1.323652         0.532520
 O        -0.167191         0.038198         0.161825
 C        -0.169024         2.570687        -0.203780
 C        -1.058773         3.695112         0.253563
 C        -2.373041         2.990399         0.828185
 C        -2.281485         1.507844         0.506306
 H        -3.084483         2.523927         3.630949
 H         0.133813         1.701102         2.606424
 H        -0.832598         0.385553         2.415402
 H        -0.926041        -0.531536        -0.135835
 H         0.829061         2.579570         0.153408
 H        -0.150596         2.543061        -1.291936
 H        -0.566674         4.110442         1.147285
 H        -1.084369         4.530598        -0.491100
 H        -3.331050         3.437583         0.656825
 H        -3.102379         1.054471         0.024352
