19
Iteration:   856
 O        -3.184922         2.004211         2.990238
 C        -2.139923         1.869472         1.977124
 C        -0.767312         1.394474         2.124695
 C        -0.735866         1.245849         0.543923
 O        -0.155595         0.053883        -0.072557
 C        -0.105809         2.584883        -0.093309
 C        -1.065444         3.657557         0.292770
 C        -2.279729         2.969882         0.860449
 C        -2.278934         1.436587         0.599048
 H        -3.800996         1.200000         2.903676
 H         0.113085         1.926994         2.553742
 H        -0.892682         0.358402         2.584750
 H        -0.814231        -0.563013        -0.384223
 H         0.983249         2.744887         0.206602
 H         0.046951         2.522439        -1.200318
 H        -0.636421         4.444773         1.025167
 H        -1.230727         4.192228        -0.664885
 H        -3.284116         3.381178         0.759174
 H        -3.132289         0.845743         0.241623
