19
Iteration:  2973
 O        -3.078582         1.839755         2.958677
 C        -2.036995         1.830687         1.979114
 C        -0.576108         1.565080         1.985457
 C        -0.732383         1.295562         0.480833
 O        -0.358014        -0.040144         0.262229
 C        -0.199588         2.604844        -0.247849
 C        -1.191991         3.703126         0.366823
 C        -2.375694         2.909438         0.906856
 C        -2.209249         1.442465         0.522012
 H        -3.917437         1.476850         2.569215
 H         0.096119         2.378221         2.329503
 H        -0.211198         0.581742         2.412658
 H        -0.437219        -0.173596        -0.672483
 H         0.866631         2.809836         0.010034
 H        -0.202181         2.565313        -1.387781
 H        -0.585396         4.231495         1.102774
 H        -1.186093         4.467853        -0.398029
 H        -3.255806         3.462658         1.121536
 H        -2.898296         1.062416        -0.163997
