19
Iteration:  1109charge 0 multiplicity 1
 O        -3.255972         1.705133         2.919539
 C        -2.174476         1.903474         2.017076
 C        -0.703061         1.454107         2.072208
 C        -0.698867         1.316876         0.588698
 O        -0.234013         0.016111         0.061574
 C        -0.127548         2.537069        -0.238115
 C        -1.061578         3.692366         0.206745
 C        -2.199246         3.010785         0.929796
 C        -2.228338         1.573197         0.621112
 H        -3.333592         2.458671         3.468921
 H         0.066965         2.084441         2.462642
 H        -0.578085         0.482349         2.563161
 H        -0.954101        -0.642398        -0.113980
 H         0.942203         2.724787        -0.322699
 H        -0.369529         2.322560        -1.299495
 H        -0.554900         4.347484         0.918905
 H        -1.430975         4.221419        -0.664410
 H        -3.134569         3.572720         0.941175
 H        -3.072769         0.906129         0.341379
