19
Iteration:  1855
 O        -3.049693         1.810406         3.113291
 C        -2.189417         1.873357         1.867704
 C        -0.780642         1.620035         2.045149
 C        -0.666640         1.340407         0.475972
 O        -0.270094        -0.081479         0.186716
 C        -0.162171         2.554581        -0.235204
 C        -1.010522         3.656492         0.451655
 C        -2.351132         2.977638         0.757844
 C        -2.251669         1.509429         0.409296
 H        -3.153932         0.866645         3.172375
 H        -0.189820         2.503710         2.470160
 H        -0.529736         0.652102         2.417479
 H        -1.003557        -0.648055        -0.124261
 H         0.937613         2.658007        -0.138024
 H        -0.477894         2.599918        -1.292142
 H        -0.487231         4.184429         1.291565
 H        -1.362542         4.382647        -0.302938
 H        -3.185109         3.652839         0.897883
 H        -3.058161         0.978877        -0.092857
