19
Iteration:  1092charge 0 multiplicity 1
 O        -3.171623         1.797830         2.900642
 C        -2.101812         1.960145         2.040665
 C        -0.610614         1.444328         2.182741
 C        -0.739580         1.269117         0.441731
 O        -0.210030         0.057299         0.066230
 C        -0.169245         2.474403        -0.254924
 C        -1.073471         3.681212         0.328052
 C        -2.321830         2.959609         0.971386
 C        -2.318278         1.483710         0.538321
 H        -3.582157         2.639762         2.922832
 H         0.033692         2.158636         2.810432
 H        -0.651852         0.354890         2.573431
 H        -1.026266        -0.417977        -0.218886
 H         0.868886         2.666735         0.142136
 H        -0.102854         2.398119        -1.357820
 H        -0.407072         4.410701         0.852206
 H        -1.322292         4.293597        -0.611859
 H        -3.323428         3.419449         1.026826
 H        -2.936894         0.995173        -0.218823
