19
Iteration:  1459
 O        -3.164690         1.854194         2.943827
 C        -2.136975         1.973882         1.988246
 C        -0.780963         1.442732         2.127811
 C        -0.735846         1.291989         0.518565
 O        -0.220211         0.045297         0.071470
 C        -0.193313         2.480602        -0.296504
 C        -1.024154         3.634041         0.242181
 C        -2.231903         2.988851         0.945385
 C        -2.346810         1.512815         0.663575
 H        -3.507220         0.951560         2.661287
 H         0.113666         1.855837         2.717247
 H        -0.796262         0.411483         2.251736
 H         0.766644         0.218468         0.192858
 H         0.893295         2.562697        -0.183951
 H        -0.521204         2.441294        -1.371863
 H        -0.460334         4.179955         1.080305
 H        -1.185340         4.328546        -0.593688
 H        -3.164560         3.600837         1.037248
 H        -3.165406         1.039965         0.060246
