19
Iteration:  2889
 O        -3.050342         1.944022         3.081000
 C        -2.151135         1.837118         2.030901
 C        -0.789113         1.351749         2.040282
 C        -0.751624         1.242908         0.520556
 O        -0.146093        -0.006605         0.031875
 C        -0.124661         2.614161        -0.197565
 C        -1.187599         3.692244         0.341018
 C        -2.324109         2.918116         0.880973
 C        -2.291091         1.449679         0.451630
 H        -3.089869         2.924751         3.306650
 H         0.031529         1.926111         2.512087
 H        -0.789592         0.327983         2.517590
 H        -0.423884        -0.054758        -0.935797
 H         0.788828         2.859147         0.301978
 H        -0.016819         2.648608        -1.267958
 H        -0.689473         4.271996         1.142679
 H        -1.553773         4.366328        -0.498569
 H        -3.261318         3.375873         0.856617
 H        -2.995737         0.951466        -0.185379
