19
Iteration:   105charge 0 multiplicity 1
 O        -3.180544         1.785839         2.975450
 C        -2.174121         1.967131         2.013433
 C        -0.765490         1.510020         2.167946
 C        -0.702285         1.305448         0.549690
 O        -0.111918         0.116176        -0.004180
 C        -0.064570         2.514004        -0.141302
 C        -1.119274         3.558326         0.145663
 C        -2.358365         2.969636         0.804708
 C        -2.292578         1.406559         0.664892
 H        -3.519301         2.701953         3.194913
 H         0.068766         2.256273         2.628975
 H        -0.655868         0.556301         2.735182
 H        -0.724002        -0.621900        -0.092389
 H         0.931985         2.755871         0.270520
 H         0.186137         2.319009        -1.180069
 H        -0.712086         4.397055         0.770488
 H        -1.432413         4.102548        -0.792877
 H        -3.315264         3.413032         0.634707
 H        -3.003617         0.788026         0.192907
