19
Iteration:   534
 O        -3.226005         1.806475         2.952738
 C        -2.211962         1.924951         1.987813
 C        -0.658578         1.486835         2.143973
 C        -0.665148         1.209799         0.582017
 O        -0.295081         0.070129        -0.000491
 C        -0.037733         2.460131        -0.053965
 C        -1.053271         3.681203         0.281024
 C        -2.311240         2.960289         0.819086
 C        -2.241180         1.517707         0.575482
 H        -4.003307         2.045127         2.454239
 H         0.156693         2.035396         2.724226
 H        -0.790412         0.539137         2.656148
 H        -0.506639         0.243754        -0.960235
 H         0.996623         2.645600         0.134925
 H        -0.019706         2.211384        -1.133697
 H        -0.636632         4.364681         0.999051
 H        -1.075396         4.354494        -0.583939
 H        -3.198459         3.572912         0.765966
 H        -3.015298         0.942387         0.053768
