19
Iteration:  4848charge 0 multiplicity 1
 O        -3.186191         1.957953         2.932473
 C        -2.172447         1.953684         2.035961
 C        -0.688103         1.349053         2.086092
 C        -0.752085         1.237747         0.469203
 O        -0.050210         0.075253         0.004644
 C        -0.188250         2.542983        -0.136606
 C        -1.103810         3.627727         0.374823
 C        -2.295944         2.966405         0.904258
 C        -2.339078         1.490463         0.537206
 H        -3.334370         1.010526         3.288066
 H         0.053322         2.078223         2.255258
 H        -0.575310         0.439039         2.652839
 H        -0.593204        -0.384405        -0.692661
 H         0.897531         2.625906         0.107202
 H        -0.357960         2.547559        -1.224507
 H        -0.615765         4.143400         1.182146
 H        -1.279053         4.516165        -0.263522
 H        -3.283985         3.375871         0.718215
 H        -3.225624         0.984903         0.096084
