19
Iteration:  2645charge 0 multiplicity 1
 O        -3.053845         1.866131         3.212170
 C        -2.192001         1.906214         1.986529
 C        -0.787712         1.523015         2.183478
 C        -0.773764         1.280415         0.473881
 O        -0.262215         0.041192        -0.108157
 C        -0.150436         2.462740        -0.268564
 C        -1.032948         3.590464         0.252114
 C        -2.266397         2.970908         0.943641
 C        -2.307612         1.482473         0.565963
 H        -3.769250         1.246997         3.030751
 H        -0.119296         2.350211         2.434117
 H        -0.780429         0.592803         2.782066
 H         0.427721         0.434221        -0.664884
 H         0.902743         2.575973         0.083560
 H        -0.175888         2.144626        -1.316908
 H        -0.461762         4.450386         0.699885
 H        -1.344569         4.104082        -0.717427
 H        -3.087890         3.654470         0.923028
 H        -2.985089         1.207636        -0.188765
