19
Iteration:  1775charge 0 multiplicity 1
 O        -3.082958         2.081276         3.084593
 C        -2.158402         1.921444         2.009039
 C        -0.839750         1.237495         2.062447
 C        -0.720707         1.286226         0.481887
 O        -0.122668         0.050016        -0.019800
 C        -0.142215         2.606527        -0.045159
 C        -1.137070         3.657016         0.193529
 C        -2.328353         2.934604         0.896409
 C        -2.282025         1.465983         0.442338
 H        -3.222063         1.205954         3.427802
 H         0.019732         1.595108         2.712687
 H        -1.113902         0.236885         2.338355
 H         0.428544        -0.422986         0.601599
 H         0.887012         2.662722         0.248932
 H        -0.135523         2.437069        -1.157444
 H        -0.857467         4.547148         0.742901
 H        -1.666282         4.048036        -0.651244
 H        -3.372481         3.315748         0.774160
 H        -2.950594         0.854810        -0.199241
