19
Iteration:  4128charge 0 multiplicity 1
 O        -3.201296         1.767981         2.974333
 C        -2.176742         1.812989         1.975839
 C        -0.677758         1.465884         2.052693
 C        -0.737779         1.275879         0.505904
 O        -0.220860         0.073737         0.101134
 C        -0.106628         2.569919        -0.143766
 C        -1.056801         3.706020         0.323367
 C        -2.277712         2.909203         0.928754
 C        -2.283360         1.503822         0.488530
 H        -3.095845         2.703247         3.310414
 H        -0.078436         2.213885         2.477374
 H        -0.731825         0.533787         2.721327
 H        -0.680209        -0.221088        -0.678385
 H         1.053554         2.642144         0.027132
 H        -0.217516         2.501502        -1.195397
 H        -0.456736         4.464535         0.925616
 H        -1.536759         4.019617        -0.603061
 H        -3.216708         3.403176         0.852594
 H        -3.061932         1.214439        -0.250886
