19
Iteration:  2512
 O        -3.082901         2.182407         2.991119
 C        -1.996926         1.916732         2.099411
 C        -0.685691         1.156019         2.033456
 C        -0.735194         1.205051         0.505108
 O        -0.158490         0.061676        -0.074844
 C        -0.184935         2.561125        -0.119488
 C        -1.322166         3.702093         0.234801
 C        -2.337158         2.927937         0.943772
 C        -2.230468         1.481761         0.589860
 H        -3.368702         1.339334         3.347274
 H         0.214631         1.432921         2.595148
 H        -0.804942         0.147261         2.347794
 H        -0.766728        -0.626604        -0.446239
 H         0.840637         2.709387         0.300827
 H         0.007106         2.498754        -1.204173
 H        -0.973048         4.597872         0.868663
 H        -1.557346         4.188821        -0.747365
 H        -3.339360         3.406365         1.101701
 H        -3.049656         0.885622         0.095859
