19
Iteration:  1114
 O        -3.256756         1.677587         2.919858
 C        -2.191512         1.928629         2.034568
 C        -0.695238         1.457737         2.046735
 C        -0.688675         1.261456         0.581075
 O        -0.241843         0.045447         0.067938
 C        -0.145766         2.507950        -0.243440
 C        -1.078399         3.709837         0.229683
 C        -2.154877         3.015880         0.892238
 C        -2.249421         1.584633         0.631671
 H        -3.143605         2.392288         3.651737
 H        -0.022679         2.203526         2.589672
 H        -0.723860         0.492381         2.640920
 H        -0.977218        -0.585541        -0.011162
 H         0.932047         2.845810        -0.262655
 H        -0.374879         2.293959        -1.294693
 H        -0.461642         4.438860         0.808458
 H        -1.292132         4.283712        -0.720834
 H        -3.144438         3.472773         0.870178
 H        -2.945821         0.871174         0.215683
