19
Iteration:  3669
 O        -3.112319         1.728528         3.055269
 C        -2.184414         1.895974         1.984551
 C        -0.751929         1.448134         2.060252
 C        -0.737190         1.281897         0.503449
 O        -0.208434         0.031388         0.174035
 C        -0.154364         2.522704        -0.225365
 C        -1.076049         3.710197         0.184642
 C        -2.333449         3.027609         0.872323
 C        -2.327011         1.482643         0.532888
 H        -3.044614         2.446508         3.666171
 H         0.014993         2.136170         2.417656
 H        -0.437902         0.412540         2.475120
 H         0.448764        -0.052009        -0.523714
 H         0.917410         2.688600         0.145854
 H        -0.223056         2.313409        -1.327535
 H        -0.512168         4.527063         0.787823
 H        -1.529442         4.240242        -0.686282
 H        -3.271028         3.511638         0.954667
 H        -3.044223         1.054779        -0.160331
