19
Iteration:  4566charge 0 multiplicity 1
 O        -3.051766         1.924426         3.076716
 C        -2.161551         1.891388         1.923531
 C        -0.742769         1.410620         2.111733
 C        -0.756217         1.337406         0.563321
 O        -0.388637         0.086509        -0.038337
 C        -0.009067         2.570407        -0.114996
 C        -1.123026         3.661181         0.314931
 C        -2.384999         2.871288         0.763045
 C        -2.218078         1.448539         0.456035
 H        -3.025738         1.074326         3.464762
 H        -0.035559         2.145722         2.547058
 H        -0.770347         0.355822         2.616824
 H         0.466330        -0.235023         0.351526
 H         0.995018         2.898477         0.337271
 H        -0.022925         2.434933        -1.306129
 H        -0.842206         4.255686         1.338185
 H        -1.338818         4.391286        -0.475093
 H        -3.339167         3.293491         0.766032
 H        -2.878821         0.804700        -0.109890
