19
Iteration:  3826charge 0 multiplicity 1
 O        -3.160547         1.940257         2.983084
 C        -2.216428         1.882547         1.987969
 C        -0.623630         1.374396         2.168711
 C        -0.711461         1.242299         0.555776
 O        -0.211888         0.040985        -0.095582
 C        -0.129149         2.516761         0.010197
 C        -1.139866         3.646160         0.187720
 C        -2.322337         2.959196         0.903524
 C        -2.291515         1.435773         0.550488
 H        -3.255660         2.788447         3.436887
 H         0.129205         2.049752         2.397800
 H        -0.712475         0.364145         2.603838
 H         0.151742         0.337012        -0.973675
 H         0.790369         2.787446         0.557370
 H         0.189390         2.282886        -1.027752
 H        -0.772782         4.529363         0.770707
 H        -1.450711         4.034079        -0.835440
 H        -3.375853         3.358117         0.847453
 H        -3.103464         0.952637         0.015977
