19
Iteration:  3920
 O        -3.282078         1.653200         2.838756
 C        -2.143891         2.032311         2.052878
 C        -0.601715         1.494034         2.049935
 C        -0.716546         1.291126         0.527161
 O        -0.266477        -0.001464         0.067661
 C        -0.160488         2.530946        -0.244931
 C        -1.015604         3.673983         0.321884
 C        -2.287052         3.003272         0.864945
 C        -2.312338         1.539014         0.592028
 H        -3.171704         2.204320         3.668004
 H         0.098049         2.367994         2.309950
 H        -0.583036         0.415473         2.480484
 H         0.492626        -0.288561         0.628836
 H         0.992912         2.501234        -0.147478
 H        -0.419230         2.381131        -1.306963
 H        -0.590426         4.241071         1.163126
 H        -1.355561         4.460908        -0.336724
 H        -3.271472         3.550400         0.964568
 H        -3.151286         0.832227         0.458093
