19
Iteration:  1309charge 0 multiplicity 1
 O        -3.158666         1.855780         2.948822
 C        -2.196507         1.976257         1.966391
 C        -0.680743         1.530938         2.072316
 C        -0.754081         1.296896         0.518341
 O        -0.210433        -0.064301         0.136404
 C        -0.240797         2.525647        -0.243188
 C        -0.931754         3.650842         0.405703
 C        -2.282762         2.968468         0.850724
 C        -2.294299         1.513574         0.575299
 H        -3.413195         0.864311         3.053765
 H         0.085134         2.253740         2.313366
 H        -0.678840         0.455280         2.541042
 H        -0.404291        -0.064957        -0.851942
 H         0.879389         2.350161        -0.163167
 H        -0.469071         2.535979        -1.324196
 H        -0.594439         4.277693         1.211311
 H        -1.331849         4.289380        -0.401148
 H        -3.096063         3.686686         0.857953
 H        -3.076792         1.015937         0.024820
