19
Iteration:  2393charge 0 multiplicity 1
 O        -3.157061         1.842037         2.993211
 C        -2.137074         2.020030         2.050492
 C        -0.605498         1.593582         2.098209
 C        -0.733218         1.259053         0.507798
 O        -0.255124         0.013901        -0.021417
 C        -0.324092         2.402550        -0.374805
 C        -0.965620         3.609831         0.293954
 C        -2.347344         3.047556         0.992065
 C        -2.257248         1.428410         0.690868
 H        -3.664431         0.975003         2.824800
 H         0.126167         2.242184         2.615933
 H        -0.521411         0.607960         2.654419
 H         0.394301         0.333533        -0.653339
 H         0.815109         2.621022        -0.401860
 H        -0.712475         2.219836        -1.399876
 H        -0.468016         4.011279         1.205018
 H        -1.194863         4.428663        -0.436757
 H        -3.317614         3.602307         1.065139
 H        -3.002141         0.810045         0.242441
