19
Iteration:  3280charge 0 multiplicity 1
 O        -3.041816         1.855751         3.136882
 C        -2.237396         1.902427         2.014911
 C        -0.719464         1.507983         2.094695
 C        -0.786135         1.280809         0.532362
 O        -0.218518         0.067962         0.005747
 C        -0.097380         2.554250        -0.147400
 C        -1.029620         3.629797         0.166318
 C        -2.287748         2.923641         0.885635
 C        -2.320511         1.396763         0.552976
 H        -3.981521         2.096989         2.985719
 H        -0.091188         2.315046         2.467889
 H        -0.528198         0.511945         2.662122
 H        -0.455092         0.092710        -0.945306
 H         0.897700         2.581420         0.275117
 H         0.128230         2.344847        -1.221321
 H        -0.837670         4.591019         0.721998
 H        -1.528371         4.024076        -0.777597
 H        -3.260888         3.446926         0.638554
 H        -3.009943         0.741266         0.092661
