19
Iteration:  4719
 O        -3.087243         2.015551         3.042348
 C        -2.169426         1.903511         2.017048
 C        -0.811412         1.279907         2.126843
 C        -0.755993         1.269706         0.505416
 O        -0.118700         0.072173        -0.014584
 C        -0.095889         2.571365        -0.035833
 C        -1.170134         3.691484         0.180601
 C        -2.318293         2.975597         0.872105
 C        -2.277488         1.443853         0.517577
 H        -3.308148         1.096817         3.146564
 H        -0.034000         1.589666         2.894011
 H        -0.749727         0.061858         2.319212
 H        -0.460383        -0.049300        -0.892972
 H         0.851809         2.870871         0.387380
 H         0.048218         2.467605        -1.173357
 H        -0.712278         4.495847         0.903443
 H        -1.526806         3.944087        -0.817124
 H        -3.255542         3.397268         1.184270
 H        -2.948959         0.985991        -0.232319
