19
Iteration:  4468
 O        -3.149659         1.795356         2.930759
 C        -2.155602         2.008696         1.961870
 C        -0.656973         1.549338         2.022014
 C        -0.789898         1.273215         0.468492
 O        -0.296826        -0.114274         0.051753
 C        -0.147640         2.546123        -0.144816
 C        -1.120191         3.695052         0.384514
 C        -2.324140         3.015281         0.916486
 C        -2.221795         1.500159         0.582347
 H        -3.517823         0.950273         2.948019
 H         0.012744         2.308976         2.444755
 H        -0.373759         0.506033         2.469249
 H         0.684221        -0.050866        -0.142980
 H         0.984715         2.711012         0.133928
 H        -0.334116         2.577877        -1.279794
 H        -0.536969         4.080723         1.284235
 H        -1.303191         4.442416        -0.377919
 H        -3.215525         3.546189         0.886139
 H        -2.851381         0.851540        -0.013438
