19
Iteration:  3713charge 0 multiplicity 1
 O        -3.226967         1.703053         2.887298
 C        -2.175512         1.962091         1.978883
 C        -0.579415         1.578727         2.086965
 C        -0.693644         1.294555         0.579194
 O        -0.242945         0.016609         0.156103
 C        -0.315737         2.477338        -0.324172
 C        -1.033070         3.698661         0.353472
 C        -2.283236         2.990346         0.800991
 C        -2.194520         1.438134         0.649160
 H        -3.112332         2.315839         3.576401
 H         0.146797         2.267578         2.494816
 H        -0.548089         0.634162         2.789359
 H        -0.366790         0.183638        -0.782685
 H         0.809772         2.549949        -0.548159
 H        -0.945704         2.245316        -1.228657
 H        -0.558604         4.101434         1.331193
 H        -1.103316         4.530808        -0.371223
 H        -3.216377         3.461701         0.750903
 H        -2.865959         0.785096         0.165112
