19
Iteration:  4148
 O        -3.105376         1.834702         2.978090
 C        -2.162253         1.981660         1.960118
 C        -0.736596         1.348872         2.074933
 C        -0.735928         1.284234         0.469098
 O        -0.137066         0.059554         0.022291
 C        -0.117581         2.509577        -0.049637
 C        -1.137250         3.652354         0.276612
 C        -2.378475         3.001100         0.867889
 C        -2.309265         1.436416         0.547620
 H        -3.592605         2.606397         3.131799
 H         0.017177         1.992862         2.440528
 H        -0.736291         0.361119         2.481076
 H        -0.257454        -0.015454        -0.938125
 H         0.828200         2.517369         0.558746
 H         0.143956         2.561141        -1.089951
 H        -0.572923         4.099173         1.122869
 H        -1.358469         4.386399        -0.521107
 H        -3.126472         3.754525         1.060446
 H        -3.115232         0.729304         0.349861
