19
Iteration:  4405
 O        -3.148371         1.830158         3.043997
 C        -2.156684         2.012280         1.995699
 C        -0.797545         1.426081         2.124120
 C        -0.685736         1.267950         0.507074
 O        -0.262811         0.039608        -0.027776
 C        -0.157185         2.566924        -0.142269
 C        -1.070990         3.649641         0.292654
 C        -2.280809         2.992149         0.864776
 C        -2.246489         1.491043         0.473083
 H        -2.890992         0.958656         3.254952
 H         0.019338         1.862972         2.684931
 H        -0.842157         0.319350         2.346172
 H         0.576485        -0.151025         0.472258
 H         0.920010         2.799973        -0.117179
 H        -0.601725         2.401475        -1.067178
 H        -0.720179         4.223351         1.111644
 H        -1.449878         4.259169        -0.579637
 H        -3.197423         3.464290         0.676643
 H        -3.072770         0.957213        -0.062621
