19
Iteration:   633
 O        -3.298305         1.954178         2.862380
 C        -2.113582         1.955717         1.940045
 C        -0.653827         1.426876         2.186370
 C        -0.724054         1.221829         0.488363
 O        -0.224518         0.028480        -0.073067
 C        -0.084020         2.495558        -0.076067
 C        -1.049437         3.650754         0.442039
 C        -2.328152         2.954919         0.826535
 C        -2.254508         1.495540         0.549015
 H        -3.324217         1.455223         3.720084
 H         0.225225         2.090013         2.508691
 H        -0.730192         0.572932         2.767302
 H        -0.667492         0.049243        -0.961115
 H         0.911597         2.458960         0.320467
 H        -0.076412         2.347107        -1.210171
 H        -0.592982         4.101061         1.340937
 H        -1.115350         4.398676        -0.340553
 H        -3.308127         3.449348         1.005894
 H        -3.047764         0.822205         0.296540
