19
Iteration:  4608charge 0 multiplicity 1
 O        -3.153014         1.803949         2.907358
 C        -2.106259         1.965629         2.041495
 C        -0.680747         1.467302         2.060448
 C        -0.780730         1.243736         0.499033
 O        -0.234020         0.029403         0.079016
 C        -0.193591         2.495805        -0.232624
 C        -1.055797         3.658044         0.294440
 C        -2.333175         2.989317         0.951392
 C        -2.319248         1.568887         0.597962
 H        -3.519501         0.907034         2.707304
 H         0.206211         1.989442         2.478266
 H        -0.558180         0.544676         2.688522
 H         0.725646         0.237207        -0.041904
 H         0.831461         2.683605        -0.035380
 H        -0.390743         2.414745        -1.348132
 H        -0.419240         4.125280         1.124585
 H        -1.366090         4.250137        -0.556347
 H        -3.189681         3.636840         1.024169
 H        -3.079419         1.091194        -0.003267
