19
Iteration:  1965charge 0 multiplicity 1
 O        -2.945814         2.045104         3.108268
 C        -2.142946         1.914829         1.930845
 C        -0.778227         1.390966         2.040772
 C        -0.644999         1.263321         0.507609
 O        -0.306348        -0.042885        -0.002397
 C        -0.124132         2.572902        -0.028169
 C        -1.260421         3.679856         0.318471
 C        -2.345048         2.906202         0.760491
 C        -2.286450         1.476527         0.427213
 H        -3.299214         1.150245         3.265026
 H         0.133629         1.783668         2.534950
 H        -0.827846         0.339566         2.348142
 H         0.410163        -0.328236         0.626103
 H         0.814925         2.851096         0.502661
 H         0.141002         2.532819        -1.099146
 H        -0.988151         4.460069         1.067023
 H        -1.634092         4.245959        -0.555797
 H        -3.298624         3.426871         0.721035
 H        -3.009526         0.931561        -0.231434
