19
Iteration:  3161
 O        -3.169174         1.718611         2.866170
 C        -2.085856         2.077418         2.007697
 C        -0.558331         1.505934         2.082236
 C        -0.693821         1.269343         0.521093
 O        -0.271321        -0.000527         0.183958
 C        -0.245476         2.451443        -0.228837
 C        -1.128581         3.678308         0.305949
 C        -2.353281         2.968346         0.835885
 C        -2.304652         1.514008         0.581987
 H        -3.070148         2.236000         3.668194
 H         0.237125         2.196539         2.414599
 H        -0.547474         0.512479         2.630313
 H         0.019938         0.041548        -0.743157
 H         0.855075         2.519065        -0.327181
 H        -0.495184         2.409759        -1.334112
 H        -0.585767         4.171128         1.108112
 H        -1.169793         4.405143        -0.529062
 H        -3.304011         3.585193         0.966086
 H        -3.036906         0.726424         0.436763
