19
Iteration:  2692
 O        -2.885810         1.971043         3.079265
 C        -2.042598         1.974585         1.932556
 C        -0.774048         1.225797         2.075997
 C        -0.715534         1.223206         0.474032
 O        -0.307458        -0.039576         0.069763
 C        -0.135145         2.701806        -0.104936
 C        -1.206625         3.779834         0.265368
 C        -2.349438         2.911890         0.820588
 C        -2.309501         1.458486         0.569138
 H        -3.748837         1.766585         2.729106
 H         0.047251         1.527117         2.633837
 H        -0.946668         0.152400         2.146797
 H        -0.486657        -0.019722        -0.874878
 H         0.821591         2.777557         0.386481
 H         0.076752         2.486476        -1.155802
 H        -0.994493         4.459765         1.098409
 H        -1.490685         4.511403        -0.539891
 H        -3.410132         3.360302         1.051713
 H        -2.948565         0.648753         0.117938
