19
Iteration:  1560charge 0 multiplicity 1
 O        -3.125502         1.973134         3.047407
 C        -2.187306         1.882437         1.961888
 C        -0.840292         1.369404         2.158091
 C        -0.691809         1.240336         0.558321
 O        -0.231383         0.063183        -0.112971
 C        -0.080365         2.549263        -0.082965
 C        -1.121579         3.576866         0.133517
 C        -2.272842         3.004842         0.963357
 C        -2.309206         1.468790         0.511223
 H        -3.059303         1.186365         3.698161
 H        -0.175214         1.925434         2.846236
 H        -0.991705         0.325349         2.595583
 H         0.661439         0.375124        -0.051045
 H         0.780488         2.964092         0.508743
 H         0.165718         2.278792        -1.111780
 H        -0.515658         4.465484         0.437140
 H        -1.610733         3.812582        -0.866392
 H        -3.047380         3.763253         1.087336
 H        -3.042341         1.098414        -0.177909
