19
Iteration:  4543
 O        -3.063058         2.000911         2.940702
 C        -2.116373         1.925590         1.910080
 C        -0.711458         1.420622         2.004067
 C        -0.789855         1.220174         0.474716
 O        -0.220278        -0.042232        -0.055033
 C        -0.166045         2.592494         0.033390
 C        -1.143070         3.682240         0.389924
 C        -2.370602         2.936255         0.859202
 C        -2.307909         1.436896         0.521837
 H        -2.989000         1.305531         3.676297
 H         0.138318         2.027241         2.384045
 H        -0.836704         0.363702         2.433762
 H         0.656725        -0.191497         0.286133
 H         0.797277         2.839455         0.566128
 H        -0.063168         2.706282        -1.148191
 H        -0.748547         4.484991         1.195626
 H        -1.355886         4.199929        -0.557057
 H        -3.315497         3.349739         1.028014
 H        -3.071307         0.884162        -0.002860
