19
Iteration:  2181
 O        -3.120366         1.912669         3.105308
 C        -2.176806         1.850982         2.016785
 C        -0.740702         1.469292         2.083303
 C        -0.770671         1.300117         0.499896
 O        -0.224027         0.116053        -0.073751
 C        -0.125597         2.469581        -0.215469
 C        -0.979582         3.690011         0.240259
 C        -2.320031         2.950250         0.889536
 C        -2.315442         1.458315         0.534049
 H        -2.689583         1.445451         3.898582
 H        -0.086916         2.167921         2.683452
 H        -0.568138         0.453474         2.424118
 H        -0.734044        -0.607899         0.286782
 H         0.920027         2.532025         0.078990
 H        -0.235826         2.288023        -1.318176
 H        -0.614436         4.399480         1.030624
 H        -1.464100         4.199257        -0.582117
 H        -3.388660         3.271157         0.852439
 H        -3.059870         1.015350        -0.082385
