19
Iteration:  4492
 O        -3.091356         1.880503         3.015556
 C        -2.185552         1.944419         1.970331
 C        -0.793062         1.362886         2.178861
 C        -0.731244         1.295558         0.599412
 O        -0.264876         0.157321        -0.012315
 C        -0.119921         2.460127        -0.230225
 C        -1.048042         3.711350         0.329059
 C        -2.301223         2.926455         0.836789
 C        -2.282399         1.470405         0.526505
 H        -3.631909         1.058843         3.095452
 H        -0.030481         2.003490         2.607459
 H        -0.671836         0.332189         2.606687
 H         0.632492         0.050329        -0.335536
 H         0.980168         2.676594        -0.288106
 H        -0.514536         2.327955        -1.203550
 H        -0.551006         4.223379         1.111090
 H        -1.448163         4.371832        -0.431990
 H        -3.241190         3.368386         0.729982
 H        -2.868552         0.813504        -0.104585
