19
Iteration:  2068charge 0 multiplicity 1
 O        -3.118939         1.736000         3.002561
 C        -2.115825         1.985869         1.978156
 C        -0.587959         1.461118         1.985342
 C        -0.771143         1.266980         0.483199
 O        -0.228433         0.001581         0.186868
 C        -0.214689         2.486252        -0.231190
 C        -1.072698         3.711116         0.358972
 C        -2.409473         3.023517         0.810850
 C        -2.264097         1.507667         0.588000
 H        -3.146175         2.618654         3.371376
 H         0.081107         2.157558         2.455723
 H        -0.603251         0.384555         2.376167
 H        -0.252576        -0.191925        -0.781908
 H         0.884894         2.459567        -0.061173
 H        -0.362164         2.363512        -1.323495
 H        -0.643626         4.221618         1.225123
 H        -1.375064         4.407857        -0.461972
 H        -3.379421         3.528848         0.776767
 H        -2.993956         0.809052         0.083787
