19
Iteration:  2554charge 0 multiplicity 1
 O        -2.978139         1.883131         3.183611
 C        -2.240116         2.001097         1.998299
 C        -0.775290         1.485596         2.061478
 C        -0.807424         1.315527         0.455924
 O        -0.203160         0.134083        -0.076691
 C        -0.114403         2.415439        -0.193999
 C        -1.061376         3.566495         0.265512
 C        -2.338589         2.943343         0.877777
 C        -2.294094         1.535364         0.497098
 H        -3.096907         0.929847         3.522560
 H         0.082040         2.151417         2.513026
 H        -0.687541         0.492096         2.534531
 H        -0.588955        -0.680395         0.372574
 H         0.919943         2.537361         0.176753
 H        -0.083436         2.143823        -1.283344
 H        -0.558691         4.310511         0.936316
 H        -1.516734         4.245033        -0.456296
 H        -3.436963         3.271043         0.838773
 H        -3.130611         1.060651        -0.050845
