19
Iteration:   899charge 0 multiplicity 1
 O        -3.075688         2.000689         2.982622
 C        -2.216237         1.898110         1.947473
 C        -0.820609         1.363945         2.102892
 C        -0.732752         1.263304         0.477761
 O        -0.140636         0.078503         0.095073
 C        -0.209291         2.500939        -0.164501
 C        -0.990423         3.689462         0.392141
 C        -2.305510         2.910259         0.827325
 C        -2.289779         1.450194         0.548663
 H        -3.767948         1.292876         3.023943
 H        -0.189081         2.115737         2.656258
 H        -0.728978         0.330420         2.478919
 H        -0.267729         0.039167        -0.869598
 H         0.916744         2.568107        -0.156271
 H        -0.341269         2.507067        -1.297374
 H        -0.405683         4.147849         1.250949
 H        -1.224503         4.341623        -0.460999
 H        -3.237509         3.477768         0.862483
 H        -3.090651         0.881094         0.057881
