19
Iteration:  2572
 O        -3.083977         1.876247         3.173119
 C        -2.219192         1.866188         2.002904
 C        -0.679966         1.607162         2.013968
 C        -0.753878         1.247825         0.465867
 O        -0.356013         0.027534        -0.037623
 C        -0.127959         2.523621        -0.260954
 C        -1.007450         3.674657         0.335534
 C        -2.301731         2.926082         0.849712
 C        -2.293260         1.433544         0.514671
 H        -2.960828         0.958006         3.617227
 H        -0.142576         2.528423         2.190244
 H        -0.397237         0.684063         2.568129
 H        -0.233420        -0.625291         0.718954
 H         0.922332         2.645301        -0.028173
 H        -0.356827         2.710024        -1.329505
 H        -0.495702         4.168793         1.138809
 H        -1.179103         4.416120        -0.451697
 H        -3.188230         3.615876         0.912721
 H        -2.913439         0.967372        -0.205000
