19
Iteration:  3007
 O        -2.932601         1.708342         3.136174
 C        -2.234615         2.051218         1.994267
 C        -0.789315         1.483800         2.038893
 C        -0.774855         1.236862         0.541577
 O        -0.123491         0.040075         0.099067
 C        -0.208558         2.483508        -0.194413
 C        -1.082340         3.683822         0.249576
 C        -2.369432         2.993641         0.777824
 C        -2.275083         1.483810         0.533581
 H        -3.861923         2.138865         3.054627
 H         0.011071         2.070441         2.523429
 H        -0.925189         0.504102         2.630049
 H        -0.192741         0.165159        -0.850583
 H         0.807811         2.723720         0.120808
 H        -0.319272         2.366813        -1.322129
 H        -0.759714         4.260472         1.102223
 H        -1.148075         4.291038        -0.652490
 H        -3.366437         3.346773         0.756971
 H        -3.104614         1.028022        -0.048091
