19
Iteration:  4057charge 0 multiplicity 1
 O        -3.184989         1.664422         2.947457
 C        -2.213267         1.912726         1.955631
 C        -0.728159         1.526386         2.091641
 C        -0.691449         1.256702         0.483610
 O        -0.172541        -0.006345         0.158909
 C        -0.136606         2.510170        -0.244662
 C        -1.015824         3.655952         0.345862
 C        -2.295037         3.051458         0.933303
 C        -2.368566         1.541182         0.509840
 H        -3.191359         2.464184         3.519624
 H        -0.046872         2.387178         2.319059
 H        -0.502538         0.651370         2.671338
 H         0.025050        -0.065856        -0.778361
 H         0.908111         2.657525        -0.116571
 H        -0.285718         2.434398        -1.386291
 H        -0.567405         4.111244         1.212493
 H        -1.267297         4.326651        -0.484903
 H        -3.269763         3.582366         0.912153
 H        -3.275991         1.328545        -0.103844
