19
Iteration:  1141charge 0 multiplicity 1
 O        -3.094208         1.749354         2.943257
 C        -2.236358         1.940470         1.930360
 C        -0.781210         1.557028         2.121179
 C        -0.771932         1.311410         0.594890
 O        -0.251116         0.052259         0.040251
 C        -0.056184         2.486710        -0.196077
 C        -1.042119         3.611413         0.276091
 C        -2.301378         2.997496         0.859652
 C        -2.313029         1.584783         0.495922
 H        -2.432850         1.380204         3.606716
 H        -0.031660         2.215077         2.581993
 H        -0.783260         0.561952         2.536051
 H        -0.517665        -0.717470         0.584676
 H         1.016127         2.570264        -0.046677
 H        -0.320122         2.303325        -1.252738
 H        -0.549173         4.150633         1.087638
 H        -1.086196         4.349160        -0.481676
 H        -3.258336         3.522696         0.871021
 H        -3.069244         0.849466         0.146913
