19
Iteration:  4870
 O        -3.141309         1.969281         2.987750
 C        -2.155899         1.844289         1.966229
 C        -0.696265         1.434704         2.059154
 C        -0.720263         1.317308         0.506283
 O        -0.184520         0.056422        -0.014441
 C        -0.102692         2.550432        -0.053199
 C        -1.111261         3.666658         0.325807
 C        -2.349415         2.928882         0.878448
 C        -2.257890         1.410945         0.538051
 H        -3.495095         1.100715         3.097016
 H        -0.046567         2.017195         2.652711
 H        -0.745022         0.368829         2.210675
 H        -0.715342         0.001563        -0.811571
 H         0.852825         2.610804         0.507131
 H         0.086159         2.477668        -1.141729
 H        -0.712300         4.487851         0.867785
 H        -1.452229         4.229291        -0.573386
 H        -3.284730         3.474779         1.113249
 H        -3.122715         0.864465         0.220529
