19
Iteration:   418
 O        -3.301435         1.863164         2.782804
 C        -2.181291         1.974132         2.025814
 C        -0.707575         1.506913         2.148999
 C        -0.661500         1.289181         0.571489
 O        -0.352449        -0.015812         0.018475
 C        -0.048193         2.543945        -0.258052
 C        -0.989386         3.632873         0.405902
 C        -2.349332         2.947335         0.915958
 C        -2.208364         1.414066         0.600359
 H        -3.092425         1.743004         3.691280
 H         0.049530         2.099444         2.632787
 H        -0.754724         0.566801         2.614863
 H         0.513560         0.141448        -0.432252
 H         1.028873         2.735937         0.051463
 H        -0.118436         2.398686        -1.370419
 H        -0.459060         4.306923         1.100193
 H        -1.393740         4.364549        -0.261950
 H        -3.258764         3.448895         0.604233
 H        -2.898209         0.808795        -0.017559
