19
Iteration:   303
 O        -3.191323         1.985855         2.969379
 C        -2.226909         1.874441         2.012922
 C        -0.780827         1.353280         2.205218
 C        -0.699751         1.263237         0.526138
 O        -0.149475         0.091381        -0.123782
 C        -0.081139         2.540604        -0.105638
 C        -1.072003         3.698961         0.285687
 C        -2.281074         2.890644         0.779618
 C        -2.236889         1.400797         0.624008
 H        -3.998210         2.254369         2.560901
 H        -0.141619         2.168246         2.627491
 H        -0.650720         0.395106         2.765304
 H        -0.634164        -0.653305         0.298333
 H         0.943034         2.769989         0.204483
 H        -0.121507         2.347207        -1.177553
 H        -0.581945         4.256536         1.165269
 H        -1.148468         4.652415        -0.341657
 H        -3.288918         3.339592         0.758570
 H        -2.954726         0.849038         0.031299
