19
Iteration:  3200charge 0 multiplicity 1
 O        -3.123915         1.941189         3.201269
 C        -2.204173         1.901390         2.007707
 C        -0.764141         1.537375         2.115255
 C        -0.706806         1.257801         0.468938
 O        -0.200097         0.051262        -0.044151
 C        -0.101197         2.487333        -0.197524
 C        -1.056826         3.614316         0.312912
 C        -2.390835         2.878516         0.811298
 C        -2.259224         1.391561         0.437016
 H        -3.161797         2.838646         3.551564
 H        -0.058726         2.257852         2.598550
 H        -0.804032         0.629450         2.774254
 H         0.398984         0.086113        -0.821297
 H         0.962509         2.632031         0.072681
 H        -0.230273         2.243610        -1.271921
 H        -0.755840         4.375125         1.066856
 H        -1.539134         4.123665        -0.526583
 H        -3.355205         3.351571         0.877833
 H        -3.053661         0.634914         0.062590
