19
Iteration:  2793
 O        -3.088244         1.793617         2.975713
 C        -2.156623         1.819023         1.938008
 C        -0.703899         1.457809         2.144337
 C        -0.739685         1.343122         0.426562
 O        -0.365239         0.016894         0.089175
 C        -0.197929         2.621421        -0.326492
 C        -1.037422         3.746422         0.327157
 C        -2.254427         2.920775         0.890371
 C        -2.234011         1.515828         0.515075
 H        -2.669446         1.665452         3.896163
 H        -0.071879         2.045713         2.785861
 H        -0.562869         0.456579         2.453111
 H        -0.337875        -0.528743         0.916436
 H         0.889470         2.696577        -0.473506
 H        -0.678909         2.443713        -1.307103
 H        -0.555117         4.386682         1.112819
 H        -1.525582         4.401882        -0.399231
 H        -3.052415         3.410219         1.323872
 H        -2.874513         0.839475         0.023702
