19
Iteration:  4636charge 0 multiplicity 1
 O        -3.204830         1.856575         2.934026
 C        -2.156132         1.915947         1.993140
 C        -0.689200         1.480825         2.068146
 C        -0.764691         1.244780         0.502015
 O        -0.228541         0.006663         0.117085
 C        -0.228633         2.502470        -0.308307
 C        -0.998383         3.749479         0.365977
 C        -2.303563         2.968148         0.970518
 C        -2.250582         1.469956         0.550074
 H        -3.355786         0.930809         3.077224
 H         0.140437         2.135643         2.431447
 H        -0.654610         0.561063         2.625665
 H         0.528071         0.221974        -0.495538
 H         0.907271         2.701829        -0.272027
 H        -0.573949         2.443323        -1.333774
 H        -0.370274         4.087832         1.162766
 H        -1.266678         4.561170        -0.355367
 H        -3.273986         3.598955         0.902484
 H        -3.038266         0.843769         0.108436
