19
Iteration:  3639
 O        -3.017725         1.852888         3.086485
 C        -2.209522         1.981579         1.952017
 C        -0.789514         1.410888         2.155362
 C        -0.678594         1.228308         0.514375
 O        -0.214603         0.068427        -0.019029
 C        -0.077078         2.537005        -0.041343
 C        -1.170733         3.631285         0.193816
 C        -2.405114         3.010165         0.741133
 C        -2.281961         1.385954         0.550862
 H        -2.924656         2.678718         3.604230
 H         0.041526         2.043172         2.494899
 H        -0.804625         0.350364         2.591187
 H        -0.158187         0.231941        -1.003623
 H         0.725736         2.745014         0.681807
 H         0.219766         2.201107        -1.004686
 H        -0.836865         4.347707         0.936420
 H        -1.492326         4.153168        -0.728452
 H        -3.354525         3.404377         0.887469
 H        -2.927437         0.753666         0.030339
