19
Iteration:  2412charge 0 multiplicity 1
 O        -3.143583         1.852792         3.003331
 C        -2.110505         1.819600         2.020754
 C        -0.630233         1.529630         2.100012
 C        -0.716509         1.306197         0.506856
 O        -0.325962         0.000139         0.180861
 C        -0.308081         2.480815        -0.426568
 C        -1.066373         3.690413         0.325162
 C        -2.164231         2.940729         0.987009
 C        -2.241512         1.554586         0.538686
 H        -3.611401         0.959880         2.923160
 H        -0.090269         2.418872         2.466930
 H        -0.373586         0.658232         2.625549
 H         0.062795         0.021649        -0.726440
 H         0.735158         2.721172        -0.617579
 H        -0.980570         2.340363        -1.288440
 H        -0.244845         4.258904         0.898197
 H        -1.607543         4.398936        -0.355916
 H        -3.104782         3.448936         0.932806
 H        -3.000515         1.137814        -0.051143
