19
Iteration:  3363charge 0 multiplicity 1
 O        -3.048238         1.764154         3.095335
 C        -2.176419         1.933159         1.961347
 C        -0.755853         1.529976         1.990385
 C        -0.766367         1.221076         0.508529
 O        -0.156561         0.086312         0.172457
 C        -0.258880         2.436606        -0.278699
 C        -1.041442         3.647298         0.330179
 C        -2.284025         2.980277         0.907476
 C        -2.292493         1.523905         0.493992
 H        -3.897485         2.237813         2.798628
 H        -0.084450         2.305720         2.416360
 H        -0.561493         0.608741         2.600210
 H         0.139851         0.139936        -0.742716
 H         0.876058         2.498470        -0.136264
 H        -0.555630         2.238422        -1.364363
 H        -0.619765         4.138106         1.197596
 H        -1.293125         4.290272        -0.489984
 H        -3.276679         3.466069         0.846596
 H        -3.117182         1.072260         0.006848
