19
Iteration:  4362charge 0 multiplicity 1
 O        -3.087630         2.097905         3.001002
 C        -2.190135         1.862949         2.021186
 C        -0.730342         1.377471         2.042976
 C        -0.748430         1.271577         0.526444
 O        -0.209094         0.050695        -0.098120
 C        -0.152438         2.555570        -0.049841
 C        -1.123911         3.638575         0.424195
 C        -2.290737         2.832590         0.824475
 C        -2.302382         1.424480         0.485212
 H        -3.600818         1.334917         3.215540
 H        -0.058959         2.114194         2.451998
 H        -0.645010         0.429033         2.601810
 H         0.767519         0.202711        -0.267215
 H         0.881824         2.688045         0.343129
 H        -0.228502         2.584095        -1.187428
 H        -0.782793         4.368805         1.153716
 H        -1.554936         4.073962        -0.554200
 H        -3.200396         3.348388         1.038948
 H        -2.950817         0.802349        -0.177953
