19
Iteration:  4122charge 0 multiplicity 1
 O        -3.231237         1.746541         3.008558
 C        -2.211021         1.818812         1.957858
 C        -0.678139         1.437896         2.083672
 C        -0.691713         1.307062         0.489031
 O        -0.256907         0.056250         0.130023
 C        -0.125122         2.566221        -0.166053
 C        -1.049437         3.725197         0.313099
 C        -2.277613         2.938414         0.926528
 C        -2.189105         1.480816         0.439848
 H        -3.077216         2.520238         3.504741
 H         0.009414         2.330679         2.414370
 H        -0.653202         0.579828         2.789811
 H        -0.754629        -0.308812        -0.621242
 H         0.915523         2.540408        -0.060628
 H        -0.409828         2.571864        -1.284427
 H        -0.501406         4.481941         0.843944
 H        -1.500812         4.243474        -0.564207
 H        -3.201172         3.586056         0.901518
 H        -2.929250         1.181621        -0.298261
