19
Iteration:  3901
 O        -3.209521         1.641451         2.872641
 C        -2.177564         1.898862         1.959867
 C        -0.677692         1.703567         2.119629
 C        -0.794309         1.270695         0.433092
 O        -0.278003         0.080766         0.080724
 C        -0.211486         2.450388        -0.277862
 C        -0.909868         3.608977         0.378795
 C        -2.301178         3.019653         0.937798
 C        -2.262586         1.494808         0.562070
 H        -3.061301         2.065922         3.717922
 H        -0.093355         2.575811         2.413679
 H        -0.567315         0.754203         2.816817
 H         0.076928        -0.456356         0.786870
 H         0.885189         2.724487        -0.195952
 H        -0.425030         2.226667        -1.361941
 H        -0.195535         4.034934         1.142116
 H        -1.162870         4.491484        -0.249947
 H        -3.308305         3.424930         0.827575
 H        -2.919871         1.108300        -0.158577
