19
Iteration:  3909charge 0 multiplicity 1
 O        -3.232526         1.658751         2.826583
 C        -2.160645         1.926055         2.016019
 C        -0.685978         1.630100         2.051518
 C        -0.763196         1.326542         0.500074
 O        -0.262010         0.026734         0.055352
 C        -0.191205         2.423975        -0.318968
 C        -1.005621         3.656003         0.400040
 C        -2.293078         3.025035         0.902846
 C        -2.273758         1.520500         0.649165
 H        -3.215075         1.996105         3.689329
 H         0.086120         2.382645         2.478457
 H        -0.257928         0.727706         2.633700
 H         0.274358        -0.288276         0.783105
 H         0.924573         2.523748        -0.035665
 H        -0.264484         2.386049        -1.412544
 H        -0.377388         4.051424         1.204609
 H        -1.082960         4.398352        -0.367881
 H        -3.217739         3.655918         0.765062
 H        -3.067314         0.969787         0.093883
