19
Iteration:  2582charge 0 multiplicity 1
 O        -3.065833         1.873796         3.035584
 C        -2.152694         1.861671         1.963875
 C        -0.662793         1.584907         2.035734
 C        -0.772944         1.286997         0.439396
 O        -0.382925        -0.065640         0.003455
 C        -0.194417         2.564076        -0.264879
 C        -1.013054         3.718995         0.399442
 C        -2.301061         2.961354         0.835618
 C        -2.273931         1.468291         0.557278
 H        -2.978444         1.067464         3.609387
 H        -0.009042         2.368238         2.328361
 H        -0.221083         0.819642         2.710349
 H        -0.073627        -0.615139         0.780855
 H         0.888630         2.599838        -0.225794
 H        -0.390318         2.443476        -1.369976
 H        -0.588498         4.192950         1.266422
 H        -1.316312         4.562309        -0.243030
 H        -3.271976         3.305663         1.184036
 H        -2.994640         0.849646         0.088789
