19
Iteration:  4960
 O        -3.147290         1.987934         3.011047
 C        -2.227023         1.854282         1.963008
 C        -0.793802         1.385112         2.115844
 C        -0.679924         1.249637         0.562514
 O        -0.121744         0.073320         0.024703
 C        -0.196127         2.547478        -0.266377
 C        -1.070414         3.628382         0.429978
 C        -2.327818         2.972463         0.887116
 C        -2.214009         1.411536         0.501012
 H        -3.366001         1.078433         3.244720
 H        -0.071489         2.105877         2.396619
 H        -0.602540         0.506549         2.806550
 H        -0.331152         0.075237        -0.933044
 H         0.881453         2.662663        -0.312697
 H        -0.530307         2.707609        -1.385687
 H        -0.513335         4.252442         1.213293
 H        -1.318305         4.441878        -0.254725
 H        -3.291894         3.482253         0.818205
 H        -3.017487         0.999088        -0.112199
