19
Iteration:  1370charge 0 multiplicity 1
 O        -3.045402         2.052954         2.985796
 C        -2.229020         1.985827         1.929506
 C        -0.821156         1.321824         2.145074
 C        -0.736318         1.215700         0.585221
 O        -0.221645         0.008541        -0.023706
 C        -0.176239         2.558734        -0.148806
 C        -1.093231         3.672175         0.340107
 C        -2.305728         2.950454         0.837704
 C        -2.259539         1.398481         0.482762
 H        -2.919751         1.164313         3.423672
 H         0.088094         1.831479         2.611231
 H        -1.028230         0.458350         2.703545
 H         0.688196         0.156892        -0.378915
 H         0.852165         2.678152         0.146949
 H        -0.224106         2.557020        -1.271588
 H        -0.614449         4.215401         1.215082
 H        -1.345285         4.428853        -0.399175
 H        -3.329276         3.386947         0.820182
 H        -3.024010         0.783699         0.035829
