19
Iteration:  3462
 O        -3.051652         1.842555         3.010067
 C        -2.164478         2.025378         2.003077
 C        -0.751307         1.336444         2.038747
 C        -0.858353         1.228363         0.446553
 O        -0.037002         0.085785         0.053877
 C        -0.134722         2.502217        -0.062681
 C        -1.147630         3.640830         0.227455
 C        -2.395229         2.962029         0.824163
 C        -2.309931         1.495396         0.629991
 H        -3.134312         2.663919         3.476389
 H         0.205014         1.804001         2.334983
 H        -0.894929         0.431787         2.759038
 H        -0.339324        -0.079231        -0.891046
 H         0.959988         2.565573         0.363009
 H         0.060734         2.548978        -1.215829
 H        -0.749712         4.464263         0.846627
 H        -1.483247         3.950949        -0.742241
 H        -3.438755         3.406754         0.746145
 H        -3.200543         0.975512         0.378716
