19
Iteration:   852charge 0 multiplicity 1
 O        -3.168637         1.979240         2.985771
 C        -2.158556         1.894901         1.954910
 C        -0.723513         1.394098         2.141732
 C        -0.760406         1.229564         0.575827
 O        -0.183318         0.081762        -0.056820
 C        -0.077968         2.579996        -0.086594
 C        -1.089784         3.665477         0.273951
 C        -2.245570         2.945728         0.877738
 C        -2.311587         1.443972         0.552285
 H        -3.656327         1.178604         2.972546
 H         0.113223         1.949406         2.621928
 H        -0.944788         0.452016         2.555505
 H        -0.880000        -0.584674        -0.292271
 H         0.958361         2.818239         0.188032
 H         0.124243         2.498307        -1.200661
 H        -0.623604         4.301299         1.048787
 H        -1.343501         4.191823        -0.650902
 H        -3.202874         3.411059         0.700763
 H        -3.078457         0.850595         0.079664
