19
Iteration:   564charge 0 multiplicity 1
 O        -3.106400         1.793165         3.011818
 C        -2.228510         1.948264         1.942223
 C        -0.846133         1.387767         2.083239
 C        -0.765137         1.185850         0.425527
 O        -0.148606         0.019955         0.212281
 C        -0.087087         2.491071        -0.205489
 C        -1.006195         3.753925         0.337540
 C        -2.256354         3.033337         0.933444
 C        -2.311236         1.592731         0.462025
 H        -3.937505         1.494441         2.519960
 H        -0.058407         1.799515         2.671034
 H        -1.151938         0.351148         2.498845
 H        -0.024798        -0.238280        -0.702499
 H         0.999970         2.611044         0.099348
 H        -0.212355         2.520366        -1.353791
 H        -0.481169         4.416804         1.032566
 H        -1.272154         4.359793        -0.591859
 H        -3.136402         3.670565         0.931967
 H        -3.209835         1.165559        -0.057216
