19
Iteration:  4859
 O        -3.187310         1.973844         2.941544
 C        -2.119387         1.947605         1.991046
 C        -0.686150         1.403474         2.039569
 C        -0.756844         1.223551         0.484760
 O        -0.111977         0.091026        -0.015774
 C        -0.098198         2.530228        -0.132159
 C        -1.103617         3.683141         0.370106
 C        -2.370200         2.921221         0.938796
 C        -2.364897         1.429347         0.578051
 H        -3.443161         1.078488         3.104757
 H         0.133571         1.955720         2.452278
 H        -0.665866         0.482678         2.627279
 H        -0.545028        -0.337573        -0.756101
 H         0.905165         2.760131         0.297074
 H         0.114173         2.386630        -1.213509
 H        -0.682519         4.235104         1.178901
 H        -1.425532         4.286808        -0.506372
 H        -3.254667         3.503829         1.242717
 H        -2.934030         0.834211        -0.118637
