19
Iteration:  1604
 O        -3.039832         1.937283         2.972173
 C        -2.112588         2.020740         1.970385
 C        -0.720589         1.430526         2.101873
 C        -0.649359         1.242721         0.532571
 O        -0.339665        -0.078643        -0.035520
 C        -0.110294         2.603269        -0.025512
 C        -1.171519         3.710205         0.223573
 C        -2.333616         2.923595         0.845867
 C        -2.284662         1.489283         0.561112
 H        -3.825216         1.359456         2.646044
 H         0.124623         1.859176         2.655709
 H        -0.810315         0.369018         2.529009
 H         0.489637        -0.568579         0.026806
 H         0.768507         2.939113         0.575459
 H         0.061909         2.477289        -1.085361
 H        -0.893972         4.313941         1.120561
 H        -1.421844         4.322514        -0.702946
 H        -3.393048         3.243296         0.976232
 H        -3.015186         0.786766         0.112668
