19
Iteration:  3073
 O        -3.112128         1.917904         2.928346
 C        -2.071877         2.033535         1.941669
 C        -0.605920         1.416305         2.015910
 C        -0.683838         1.162892         0.515058
 O        -0.182023        -0.063392        -0.001133
 C        -0.212667         2.576268        -0.040430
 C        -1.199672         3.721199         0.341512
 C        -2.437085         2.931709         0.831525
 C        -2.305784         1.438623         0.621286
 H        -3.051373         2.611859         3.529441
 H         0.342518         1.939996         2.289370
 H        -0.670611         0.500911         2.700202
 H        -0.165860        -0.076500        -0.989474
 H         0.780325         2.670457         0.411272
 H        -0.336095         2.610628        -1.196179
 H        -0.847881         4.361693         1.155820
 H        -1.344344         4.426818        -0.492835
 H        -3.437813         3.292910         0.975075
 H        -2.939176         0.494699         0.422820
