19
Iteration:   970
 O        -3.173821         1.701001         2.919291
 C        -2.111401         1.931332         1.985862
 C        -0.695590         1.469526         2.183400
 C        -0.688979         1.344858         0.571660
 O        -0.412846         0.041703        -0.023611
 C        -0.127464         2.477631        -0.157656
 C        -1.036972         3.663190         0.246680
 C        -2.270503         2.985898         0.824881
 C        -2.289795         1.564388         0.581367
 H        -3.196799         2.440355         3.592860
 H        -0.058842         2.300600         2.507119
 H        -0.416922         0.495305         2.678317
 H         0.368019        -0.334085         0.399724
 H         0.932062         2.653876         0.008060
 H        -0.081261         2.206153        -1.182771
 H        -0.699831         4.303799         1.055749
 H        -1.263735         4.343656        -0.610094
 H        -3.239231         3.455764         0.725883
 H        -2.899373         0.880430         0.016016
