19
Iteration:  4696
 O        -3.057883         2.007512         2.997512
 C        -2.170664         1.920558         1.926185
 C        -0.722093         1.354876         1.955370
 C        -0.760383         1.209225         0.449806
 O        -0.098029         0.038132         0.070601
 C        -0.129761         2.562076         0.015074
 C        -1.194013         3.674818         0.349874
 C        -2.318375         2.975809         0.845814
 C        -2.379266         1.470195         0.467634
 H        -2.940269         1.230613         3.674782
 H         0.150824         1.751503         2.523201
 H        -0.807636         0.307959         2.608367
 H        -0.248591        -0.116040        -0.902122
 H         0.785394         2.595009         0.601499
 H         0.170255         2.403512        -1.054397
 H        -0.928679         4.315861         1.260354
 H        -1.497188         4.158094        -0.591130
 H        -3.269032         3.413526         0.803872
 H        -3.400389         1.085736         0.227586
