19
Iteration:   736charge 0 multiplicity 1
 O        -3.246649         1.930436         2.997505
 C        -2.250124         1.907997         1.990473
 C        -0.727485         1.436336         2.152158
 C        -0.625395         1.241844         0.493687
 O        -0.304292         0.000717        -0.035000
 C        -0.119131         2.525331        -0.214925
 C        -0.980409         3.679420         0.458226
 C        -2.257482         2.970739         0.839832
 C        -2.214413         1.419314         0.543764
 H        -4.146287         2.122783         2.821007
 H        -0.043183         2.114848         2.687823
 H        -0.708253         0.424528         2.644212
 H         0.420145         0.055036        -0.691969
 H         0.964026         2.780221        -0.144415
 H        -0.241660         2.551184        -1.280968
 H        -0.496984         4.148256         1.377457
 H        -1.241177         4.341390        -0.388276
 H        -3.240134         3.373889         0.831665
 H        -2.940802         0.891020        -0.048394
