19
Iteration:    65charge 0 multiplicity 1
 O        -3.182422         1.949274         2.852426
 C        -2.179283         1.947771         1.986683
 C        -0.726439         1.487484         2.164696
 C        -0.650785         1.289272         0.546368
 O        -0.120694         0.044749         0.105137
 C        -0.210413         2.550245        -0.268228
 C        -1.131282         3.597646         0.277491
 C        -2.386804         2.915633         0.860804
 C        -2.189581         1.439197         0.561837
 H        -3.019487         1.265272         3.508476
 H        -0.071866         2.161138         2.711678
 H        -0.804062         0.527164         2.677974
 H        -0.431652        -0.629075         0.745431
 H         0.895254         2.777972        -0.149162
 H        -0.237127         2.417942        -1.435517
 H        -0.627584         4.290331         0.936223
 H        -1.446599         4.243130        -0.532890
 H        -3.363452         3.383312         0.980660
 H        -2.924934         0.816688         0.035285
