19
Iteration:  2451
 O        -2.939931         1.797125         3.047051
 C        -2.150152         2.067270         1.940230
 C        -0.730178         1.543337         1.984549
 C        -0.756060         1.230813         0.483990
 O        -0.262487        -0.009691         0.136665
 C        -0.144888         2.505313        -0.189473
 C        -1.125485         3.652386         0.345730
 C        -2.362879         2.994194         0.853050
 C        -2.322537         1.510690         0.513090
 H        -2.669788         1.017898         3.477155
 H         0.086565         2.162237         2.447112
 H        -0.862478         0.479215         2.427792
 H        -0.806309        -0.395424        -0.593067
 H         0.923969         2.667730         0.152133
 H        -0.068196         2.374827        -1.277508
 H        -0.876605         4.271464         1.165334
 H        -1.358010         4.267564        -0.511751
 H        -3.328501         3.433238         0.697240
 H        -3.269363         0.956559         0.269073
