19
Iteration:   432
 O        -3.391789         1.878110         2.948325
 C        -2.223977         1.965441         1.966791
 C        -0.723763         1.405682         2.133379
 C        -0.680247         1.283650         0.530855
 O        -0.236827         0.079397         0.050052
 C        -0.162030         2.467407        -0.143049
 C        -1.018067         3.670176         0.329952
 C        -2.204735         2.940706         0.829911
 C        -2.161983         1.469257         0.517231
 H        -2.966667         1.978099         3.851891
 H         0.025463         2.050991         2.586165
 H        -0.723230         0.324646         2.548146
 H         0.395726         0.108588        -0.660888
 H         0.956599         2.641885        -0.099088
 H        -0.368391         2.290916        -1.229951
 H        -0.512208         4.023643         1.185674
 H        -1.146633         4.333131        -0.536914
 H        -3.219945         3.335825         0.894253
 H        -2.877721         1.042846        -0.131035
