19
Iteration:  4997
 O        -3.110762         1.876259         2.966147
 C        -2.177507         1.915805         1.951964
 C        -0.684886         1.412115         2.055962
 C        -0.707843         1.252340         0.481011
 O        -0.158506         0.031925         0.155195
 C        -0.162447         2.554278        -0.263798
 C        -1.045065         3.672107         0.440949
 C        -2.393515         2.994325         0.846797
 C        -2.341170         1.495740         0.540882
 H        -3.551615         0.970698         3.023662
 H         0.054074         2.190849         2.319114
 H        -0.545871         0.474960         2.532693
 H        -0.424303        -0.058068        -0.809170
 H         0.902464         2.805548        -0.037025
 H        -0.334435         2.569504        -1.355725
 H        -0.767785         4.021987         1.462695
 H        -1.118104         4.465648        -0.308705
 H        -3.305542         3.608740         0.818916
 H        -3.026704         0.738853         0.136212
