19
Iteration:   187charge 0 multiplicity 1
 O        -3.309741         1.965331         2.924369
 C        -2.206402         1.956837         1.972842
 C        -0.671743         1.492515         2.140280
 C        -0.718620         1.242881         0.578883
 O        -0.160793         0.059259        -0.010854
 C        -0.222466         2.464138        -0.179811
 C        -1.031867         3.692214         0.329198
 C        -2.273414         2.906020         0.797427
 C        -2.252985         1.395522         0.584150
 H        -3.118042         1.375228         3.666894
 H         0.150007         2.245062         2.463517
 H        -0.696961         0.488859         2.666679
 H         0.794093        -0.041081         0.146583
 H         0.846295         2.502717         0.075803
 H        -0.374202         2.158196        -1.237164
 H        -0.495860         4.183294         1.123922
 H        -1.224189         4.433866        -0.415492
 H        -3.303092         3.309423         0.557358
 H        -3.109040         1.032088         0.017277
