19
Iteration:  3474
 O        -3.120208         1.776020         3.005785
 C        -2.121507         1.982179         1.992535
 C        -0.731435         1.427203         2.091944
 C        -0.731514         1.218044         0.548343
 O        -0.103810         0.104624         0.044925
 C        -0.208243         2.469085        -0.161888
 C        -1.104373         3.711462         0.185240
 C        -2.305549         2.995027         0.818610
 C        -2.385253         1.454669         0.639066
 H        -3.091581         2.510578         3.627499
 H         0.047576         2.021736         2.593914
 H        -0.851224         0.333432         2.484864
 H        -0.234017        -0.140101        -0.880525
 H         0.808380         2.686722         0.333783
 H        -0.092814         2.148326        -1.275756
 H        -0.661589         4.460608         0.879183
 H        -1.360028         4.314744        -0.674853
 H        -3.281110         3.543961         0.823076
 H        -3.220723         0.811085         0.276699
