19
Iteration:  1594charge 0 multiplicity 1
 O        -3.092787         1.948375         3.007614
 C        -2.092097         2.007060         2.005605
 C        -0.688215         1.330169         2.099463
 C        -0.731386         1.261112         0.538057
 O        -0.340080        -0.032385        -0.066256
 C        -0.139663         2.623702        -0.010978
 C        -1.147057         3.714165         0.196288
 C        -2.324726         2.943111         0.805428
 C        -2.226269         1.417738         0.600508
 H        -3.769579         1.247841         2.677515
 H         0.175337         1.796348         2.544706
 H        -1.082636         0.405736         2.665071
 H         0.610206        -0.139455         0.247502
 H         0.844484         2.730242         0.517908
 H         0.199132         2.583879        -1.032594
 H        -0.682181         4.582135         0.716375
 H        -1.507554         4.183456        -0.777420
 H        -3.255418         3.544431         0.739390
 H        -2.995349         0.726050         0.189060
