19
Iteration:  2007
 O        -3.185813         1.798565         3.035568
 C        -2.184080         2.009796         2.005185
 C        -0.714245         1.503809         2.026391
 C        -0.741298         1.286218         0.554604
 O        -0.197970         0.115890         0.004668
 C        -0.138515         2.481051        -0.243239
 C        -1.072141         3.572315         0.267658
 C        -2.295843         2.947358         0.868557
 C        -2.284115         1.512355         0.526163
 H        -2.717458         1.425407         3.747938
 H        -0.060210         2.186144         2.625375
 H        -0.560404         0.616568         2.593661
 H        -0.307823        -0.659869         0.626549
 H         0.923574         2.676882        -0.199975
 H        -0.389184         2.123429        -1.274962
 H        -0.471559         4.179947         0.985770
 H        -1.320880         4.371247        -0.386929
 H        -3.206742         3.534898         0.888091
 H        -3.168848         1.041580         0.041881
