19
Iteration:  2933
 O        -3.092511         1.753140         2.990415
 C        -2.174847         2.012398         2.000870
 C        -0.779981         1.465794         2.120911
 C        -0.751971         1.310701         0.499939
 O        -0.141392         0.116689         0.078638
 C        -0.232815         2.440395        -0.234583
 C        -1.033200         3.649103         0.223947
 C        -2.330223         3.030004         0.842824
 C        -2.290469         1.513446         0.613993
 H        -2.630809         1.031807         3.465185
 H         0.001408         2.084163         2.596135
 H        -0.637414         0.486295         2.641392
 H        -0.632320        -0.416666        -0.609645
 H         0.833327         2.498838        -0.095054
 H        -0.484900         2.169796        -1.256224
 H        -0.478303         4.089379         1.069173
 H        -1.390171         4.528798        -0.338275
 H        -3.265925         3.497865         0.941032
 H        -3.028022         0.936174         0.030548
