19
Iteration:  1915charge 0 multiplicity 1
 O        -3.168836         2.001785         2.963075
 C        -2.110628         2.023577         2.045271
 C        -0.706319         1.410754         2.154403
 C        -0.748352         1.196305         0.523736
 O        -0.171404         0.048353        -0.133167
 C        -0.192891         2.441981        -0.088832
 C        -1.091776         3.615023         0.242422
 C        -2.403718         2.984592         0.913146
 C        -2.265892         1.457768         0.621887
 H        -3.228971         1.035835         3.280172
 H         0.174881         1.881880         2.579415
 H        -0.727421         0.424485         2.693939
 H         0.507602         0.493501        -0.622971
 H         0.869424         2.488698         0.219566
 H        -0.173267         2.306673        -1.177646
 H        -0.410288         4.284628         0.764904
 H        -1.411529         4.240873        -0.604791
 H        -3.413318         3.418355         0.810712
 H        -3.093263         0.947033         0.196280
