19
Iteration:   288
 O        -3.210954         1.875603         3.088500
 C        -2.205996         1.943256         1.932197
 C        -0.744686         1.493753         2.119758
 C        -0.667685         1.269647         0.588232
 O        -0.196905         0.121281        -0.024902
 C        -0.096360         2.500813        -0.094956
 C        -1.012883         3.628128         0.352926
 C        -2.312327         2.894813         0.773949
 C        -2.216369         1.418019         0.446495
 H        -3.929482         2.487901         2.832767
 H         0.032435         2.010825         2.736882
 H        -0.786076         0.381120         2.522309
 H        -0.950951        -0.518616        -0.053244
 H         0.969480         2.657969         0.244191
 H        -0.086141         2.450350        -1.203366
 H        -0.676390         4.351423         1.108716
 H        -1.345418         4.036413        -0.628365
 H        -3.235855         3.432199         0.538947
 H        -2.961552         0.858107        -0.172149
