19
Iteration:   789charge 0 multiplicity 1
 O        -3.154553         1.748188         2.917818
 C        -2.202850         1.929933         1.990837
 C        -0.742877         1.459014         2.018713
 C        -0.809413         1.240170         0.461493
 O        -0.231084         0.024124         0.070155
 C        -0.138862         2.481182        -0.114239
 C        -0.961901         3.664458         0.345197
 C        -2.306445         3.040556         0.837690
 C        -2.324690         1.585280         0.491784
 H        -2.972282         2.172860         3.751710
 H         0.049241         2.030816         2.609480
 H        -0.843900         0.487131         2.558867
 H         0.410702        -0.252046         0.755059
 H         0.972471         2.548145         0.132486
 H        -0.221935         2.485494        -1.264291
 H        -0.543633         4.271415         1.219375
 H        -1.080158         4.512371        -0.358842
 H        -3.292320         3.465336         0.771578
 H        -3.051450         0.986062        -0.010108
