19
Iteration:    46
 O        -3.118531         1.919702         3.104683
 C        -2.217901         1.950123         1.934059
 C        -0.749784         1.518195         2.058631
 C        -0.757628         1.291592         0.532472
 O        -0.076366         0.075421         0.189979
 C        -0.170527         2.505661        -0.227084
 C        -1.093934         3.688011         0.296218
 C        -2.318917         2.911355         0.726125
 C        -2.290833         1.388874         0.430432
 H        -3.501387         1.076429         2.895146
 H        -0.063571         2.167311         2.509039
 H        -0.641178         0.502198         2.447132
 H        -0.190699        -0.458061         0.980611
 H         0.898115         2.616951        -0.137864
 H        -0.395680         2.295669        -1.253046
 H        -0.672217         4.112171         1.222158
 H        -1.325029         4.518650        -0.368068
 H        -3.313794         3.358882         0.451456
 H        -3.055104         0.729700        -0.105495
