19
Iteration:   921
 O        -3.099799         1.881640         3.056113
 C        -2.225706         1.917275         1.890287
 C        -0.759166         1.456577         2.068460
 C        -0.738062         1.277037         0.482160
 O        -0.275800        -0.036446         0.208465
 C        -0.149142         2.533972        -0.205758
 C        -1.004720         3.681863         0.365664
 C        -2.350282         2.978601         0.853733
 C        -2.273380         1.529609         0.390012
 H        -2.925797         1.011077         3.451376
 H         0.125216         2.036286         2.410600
 H        -0.841325         0.477477         2.562636
 H         0.359763         0.192256        -0.506767
 H         0.970052         2.685410        -0.077073
 H        -0.217255         2.362717        -1.342526
 H        -0.460960         4.002887         1.303175
 H        -1.297181         4.445201        -0.359084
 H        -3.265112         3.588098         0.824802
 H        -3.020075         1.055063        -0.265159
