19
Iteration:  3847charge 0 multiplicity 1
 O        -3.101995         1.823245         2.920115
 C        -2.128881         2.014459         2.021408
 C        -0.749247         1.384344         2.059831
 C        -0.751027         1.250071         0.491627
 O        -0.160291         0.045381         0.080998
 C        -0.093658         2.520271        -0.114462
 C        -1.135487         3.691163         0.312311
 C        -2.299807         2.954576         0.827816
 C        -2.329411         1.478971         0.546716
 H        -3.281007         2.511347         3.543195
 H         0.044101         1.902878         2.497204
 H        -0.904460         0.314530         2.412262
 H        -0.624051        -0.330968        -0.669289
 H         0.894605         2.828313         0.295791
 H         0.042906         2.283410        -1.187516
 H        -0.737561         4.473377         1.022779
 H        -1.604098         4.220588        -0.562542
 H        -3.270608         3.485672         0.991133
 H        -3.085373         0.761511         0.257990
