19
Iteration:  4444
 O        -3.151583         1.749992         2.953620
 C        -2.140740         1.878595         1.905497
 C        -0.622894         1.563770         2.043942
 C        -0.752440         1.318896         0.468586
 O        -0.418146         0.036487         0.134285
 C        -0.097375         2.585644        -0.197004
 C        -1.049769         3.673703         0.365806
 C        -2.290439         2.913592         0.895698
 C        -2.290944         1.507825         0.488236
 H        -3.274514         0.853858         3.369673
 H        -0.066626         2.396533         2.548819
 H        -0.412763         0.611384         2.602737
 H         0.522691        -0.153854         0.297496
 H         1.009134         2.697239         0.159562
 H        -0.251087         2.500393        -1.396273
 H        -0.429741         4.187703         1.194535
 H        -1.236432         4.297719        -0.528744
 H        -3.221465         3.546798         0.999976
 H        -3.179211         1.051222         0.054749
