19
Iteration:  4966
 O        -3.129113         1.986691         2.996089
 C        -2.226847         1.909095         1.974827
 C        -0.772867         1.402028         2.118833
 C        -0.652933         1.258590         0.595596
 O        -0.151331         0.079554         0.032669
 C        -0.203555         2.550892        -0.303197
 C        -1.037836         3.652625         0.459591
 C        -2.329685         2.903837         0.890149
 C        -2.247822         1.358393         0.497255
 H        -3.401287         1.071047         3.021321
 H         0.060762         2.157712         2.452374
 H        -0.759024         0.470954         2.635266
 H        -0.438797         0.148283        -0.866504
 H         0.902226         2.794318        -0.395701
 H        -0.680824         2.627041        -1.228918
 H        -0.672540         4.123390         1.347460
 H        -1.243278         4.491189        -0.256457
 H        -3.271381         3.470061         0.713881
 H        -2.923509         1.038853        -0.306833
