19
Iteration:  3717
 O        -3.233366         1.708779         2.919180
 C        -2.146810         1.942449         1.978996
 C        -0.611260         1.588596         2.095139
 C        -0.690426         1.317411         0.627128
 O        -0.233132         0.014177         0.130021
 C        -0.320427         2.499236        -0.347391
 C        -0.994826         3.681116         0.350677
 C        -2.276873         2.965876         0.815603
 C        -2.219876         1.455602         0.594971
 H        -3.199761         2.367077         3.721858
 H         0.157126         2.279489         2.585108
 H        -0.476777         0.729827         2.792907
 H        -0.430895         0.045791        -0.844589
 H         0.758817         2.531149        -0.461933
 H        -0.797040         2.181009        -1.272224
 H        -0.574941         4.106521         1.262345
 H        -1.146632         4.551010        -0.334037
 H        -3.337284         3.383113         0.603858
 H        -2.941805         0.723915         0.143368
