19
Iteration:  4622
 O        -3.198462         1.816880         2.879174
 C        -2.111882         1.966564         1.982724
 C        -0.624991         1.459664         2.016819
 C        -0.731883         1.320170         0.502838
 O        -0.208279         0.025677         0.125529
 C        -0.262024         2.488318        -0.241872
 C        -1.038513         3.614773         0.383505
 C        -2.245217         3.073419         0.938045
 C        -2.388129         1.480806         0.612539
 H        -3.540025         0.875270         2.836833
 H         0.051155         2.234028         2.430748
 H        -0.565971         0.321919         2.222812
 H         0.664365         0.103382        -0.241343
 H         0.909870         2.491364        -0.169045
 H        -0.447363         2.290483        -1.413553
 H        -0.507646         4.451185         1.101355
 H        -1.294462         4.395468        -0.352875
 H        -3.218910         3.531017         1.079035
 H        -3.295009         0.861250         0.462004
