19
Iteration:  4150
 O        -3.105220         1.833316         2.994186
 C        -2.154044         1.996786         1.957370
 C        -0.728003         1.342259         2.064902
 C        -0.738097         1.265047         0.466078
 O        -0.136408         0.062905         0.019802
 C        -0.124347         2.515954        -0.042967
 C        -1.137940         3.661026         0.277860
 C        -2.396952         3.005109         0.848993
 C        -2.301586         1.434529         0.547818
 H        -3.621892         2.639060         3.097195
 H         0.029689         1.927797         2.466803
 H        -0.843925         0.326133         2.563365
 H        -0.202144         0.006681        -0.973895
 H         0.867939         2.515063         0.565994
 H         0.147254         2.568393        -1.050686
 H        -0.544030         4.088490         1.132523
 H        -1.350751         4.367033        -0.531075
 H        -3.114513         3.758347         1.057796
 H        -3.107529         0.687216         0.368834
