19
Iteration:  4437
 O        -3.121270         1.754208         2.954747
 C        -2.154994         1.811296         1.974487
 C        -0.691804         1.548552         2.114839
 C        -0.772422         1.376247         0.484954
 O        -0.418690         0.025168         0.107392
 C        -0.123154         2.567053        -0.187481
 C        -1.031766         3.654142         0.298818
 C        -2.257083         3.003617         0.852750
 C        -2.270259         1.490498         0.474605
 H        -3.080614         0.823122         3.373586
 H        -0.152715         2.363049         2.584310
 H        -0.354288         0.526610         2.507571
 H         0.473237        -0.125019         0.408703
 H         0.951591         2.741461        -0.066804
 H        -0.188357         2.548806        -1.217745
 H        -0.571346         4.222731         1.105200
 H        -1.312744         4.497331        -0.332123
 H        -3.152370         3.515417         0.982154
 H        -2.947132         0.876459        -0.136319
