19
Iteration:  2835
 O        -3.061438         1.837116         3.084884
 C        -2.085960         2.051500         2.021744
 C        -0.740019         1.490843         2.062568
 C        -0.774095         1.235614         0.476850
 O        -0.245887         0.032584        -0.109060
 C        -0.167064         2.451901        -0.116184
 C        -1.090152         3.647635         0.287696
 C        -2.332185         3.022374         0.888105
 C        -2.366528         1.445368         0.563874
 H        -3.350098         0.883806         2.928240
 H         0.059901         2.091043         2.493417
 H        -0.841058         0.582073         2.714855
 H         0.749142         0.018756         0.055097
 H         0.858415         2.570821         0.225912
 H        -0.182832         2.506207        -1.198858
 H        -0.687975         4.447616         0.947113
 H        -1.120483         4.301192        -0.613779
 H        -3.255809         3.495812         0.754661
 H        -3.223753         0.924045         0.226218
