19
Iteration:  3044charge 0 multiplicity 1
 O        -3.065190         1.942473         3.080919
 C        -2.130211         1.859089         1.987344
 C        -0.805794         1.292382         2.061237
 C        -0.739796         1.283612         0.509300
 O        -0.099906         0.130577         0.085300
 C        -0.205672         2.550674        -0.201776
 C        -1.141256         3.652376         0.198364
 C        -2.276885         2.835004         0.926041
 C        -2.362333         1.484639         0.546806
 H        -3.332257         2.879531         3.251743
 H         0.069620         1.814010         2.532224
 H        -0.815256         0.271924         2.377893
 H         0.096672         0.145313        -0.838393
 H         0.870094         2.706663         0.026679
 H        -0.173634         2.518134        -1.290078
 H        -0.793747         4.413056         0.926505
 H        -1.594003         4.259693        -0.604699
 H        -3.310940         3.274237         1.139304
 H        -3.006315         0.927931        -0.135673
