19
Iteration:  3181
 O        -3.121203         1.832842         3.000478
 C        -2.214847         1.894591         2.020360
 C        -0.732893         1.602280         2.178180
 C        -0.718359         1.259120         0.611174
 O        -0.304852         0.024496        -0.014438
 C        -0.196952         2.532954        -0.251942
 C        -1.051209         3.629017         0.275476
 C        -2.294973         2.941481         0.769653
 C        -2.199894         1.363045         0.657450
 H        -2.949924         2.541496         3.576757
 H        -0.068394         2.378011         2.471101
 H        -0.441691         0.616477         2.654941
 H         0.048219         0.364346        -0.882787
 H         0.874276         2.662642        -0.180004
 H        -0.318732         2.317798        -1.305369
 H        -0.468115         4.108123         1.089652
 H        -1.318769         4.440356        -0.448274
 H        -3.353480         3.180285         0.575799
 H        -2.863478         0.870743        -0.083128
