19
Iteration:  2899
 O        -3.057234         1.885131         3.049845
 C        -2.208799         1.944199         1.937046
 C        -0.759117         1.337885         1.986329
 C        -0.760634         1.240606         0.445604
 O        -0.048092         0.014120         0.039748
 C        -0.170641         2.539966        -0.131894
 C        -1.144707         3.717116         0.332236
 C        -2.347951         2.966542         0.890453
 C        -2.375576         1.479546         0.589737
 H        -2.748018         2.671218         3.630799
 H        -0.090452         2.051944         2.481815
 H        -0.841062         0.311953         2.454996
 H        -0.465112        -0.350675        -0.789899
 H         0.849568         2.704511         0.185957
 H        -0.091100         2.420391        -1.214131
 H        -0.756432         4.319681         1.160892
 H        -1.240465         4.356201        -0.573317
 H        -3.296437         3.417157         0.996661
 H        -3.002127         0.872375         0.003578
