19
Iteration:  2373
 O        -3.075648         1.897215         3.085414
 C        -2.109984         2.083243         2.051630
 C        -0.693864         1.452669         2.069320
 C        -0.777362         1.238007         0.523020
 O        -0.237164         0.057951        -0.075292
 C        -0.272649         2.484100        -0.225735
 C        -1.047476         3.649452         0.338726
 C        -2.317214         2.908580         0.743326
 C        -2.334000         1.469024         0.673277
 H        -3.253184         0.944412         3.105880
 H         0.240950         2.039009         2.222432
 H        -0.487283         0.489233         2.681554
 H         0.685570         0.182372        -0.288487
 H         0.831697         2.392393        -0.128525
 H        -0.394331         2.276268        -1.281049
 H        -0.672119         4.119780         1.236702
 H        -1.315963         4.404654        -0.415209
 H        -3.320475         3.390767         0.582503
 H        -3.263456         0.942732         0.404789
