19
Iteration:  1276
 O        -3.005765         1.807997         2.955716
 C        -2.158357         1.910334         1.933339
 C        -0.761054         1.535578         2.082956
 C        -0.722287         1.361104         0.486711
 O        -0.393834        -0.043327         0.188851
 C        -0.062552         2.595815        -0.162683
 C        -1.061751         3.669295         0.368214
 C        -2.362902         2.961289         0.806532
 C        -2.218704         1.486866         0.428271
 H        -2.948890         1.015325         3.523569
 H        -0.032994         2.114711         2.685541
 H        -0.721756         0.450752         2.498256
 H        -1.261938        -0.276481        -0.223397
 H         0.975169         2.499906         0.244205
 H         0.074512         2.368300        -1.228429
 H        -0.622301         4.303670         1.135977
 H        -1.351712         4.386525        -0.424065
 H        -3.265835         3.565138         0.775669
 H        -2.857356         0.974845        -0.257436
