19
Iteration:  3652charge 0 multiplicity 1
 O        -3.036299         1.779586         3.143355
 C        -2.225733         1.928212         1.963420
 C        -0.808869         1.477094         2.078875
 C        -0.777943         1.292138         0.580258
 O        -0.225603         0.075872         0.041029
 C        -0.054573         2.496196        -0.082063
 C        -1.126934         3.633287         0.159566
 C        -2.329042         2.883888         0.831454
 C        -2.279261         1.498750         0.465601
 H        -2.869842         2.589768         3.658373
 H        -0.080145         2.102332         2.663906
 H        -0.871143         0.540966         2.583380
 H         0.124572         0.311372        -0.818265
 H         0.959268         2.705634         0.189344
 H         0.054041         2.508187        -1.192257
 H        -0.727990         4.466015         0.678031
 H        -1.462292         4.068235        -0.801727
 H        -3.273860         3.422485         0.587245
 H        -3.015853         0.949100        -0.090931
