19
Iteration:  2189
 O        -3.056037         1.857558         3.101558
 C        -2.229285         1.875612         2.013243
 C        -0.852391         1.530519         2.058771
 C        -0.724961         1.293098         0.486439
 O        -0.211601         0.082890        -0.021751
 C        -0.154498         2.496630        -0.245646
 C        -1.002094         3.664186         0.266670
 C        -2.277543         2.955363         0.895716
 C        -2.326025         1.471800         0.549127
 H        -2.587142         1.379838         3.878566
 H        -0.299162         2.263573         2.561767
 H        -0.574731         0.518202         2.407526
 H        -0.908813        -0.549659         0.070550
 H         0.894600         2.666936        -0.056475
 H        -0.202306         2.412077        -1.339103
 H        -0.393797         4.170728         1.026409
 H        -1.038615         4.324793        -0.621091
 H        -3.298653         3.348798         0.756786
 H        -3.087296         0.854520         0.107944
