19
Iteration:  1969charge 0 multiplicity 1
 O        -2.944052         2.022356         3.093419
 C        -2.143924         1.948945         1.935612
 C        -0.774161         1.387282         2.023247
 C        -0.670390         1.243146         0.518526
 O        -0.293529        -0.045343         0.012629
 C        -0.105492         2.609568        -0.008613
 C        -1.253981         3.707600         0.311346
 C        -2.333851         2.896592         0.753312
 C        -2.314577         1.457420         0.412933
 H        -3.191167         1.061253         3.275898
 H         0.119435         1.942193         2.404772
 H        -0.894892         0.286169         2.412166
 H         0.325417        -0.380396         0.655478
 H         0.898134         2.809978         0.459320
 H         0.006041         2.496778        -1.095528
 H        -0.838789         4.379138         1.090428
 H        -1.672157         4.242814        -0.603175
 H        -3.282639         3.454963         0.802540
 H        -3.089934         0.953303        -0.096626
