19
Iteration:  2581charge 0 multiplicity 1
 O        -3.068493         1.873133         3.054084
 C        -2.169201         1.861402         1.961222
 C        -0.664148         1.589915         2.034781
 C        -0.775524         1.281615         0.436964
 O        -0.380661        -0.056713        -0.000037
 C        -0.184468         2.559003        -0.262702
 C        -1.009337         3.714098         0.388076
 C        -2.300724         2.958261         0.831912
 C        -2.270187         1.464286         0.560197
 H        -2.989055         1.046222         3.644132
 H        -0.033217         2.375765         2.299958
 H        -0.224013         0.822770         2.699451
 H        -0.085364        -0.638138         0.767945
 H         0.906753         2.604810        -0.214600
 H        -0.393194         2.506542        -1.360373
 H        -0.584255         4.209023         1.260276
 H        -1.303851         4.577071        -0.255806
 H        -3.232685         3.314105         1.195780
 H        -2.978054         0.855772         0.045255
