19
Iteration:  4215charge 0 multiplicity 1
 O        -3.092126         1.879232         3.109546
 C        -2.178678         1.917806         1.965187
 C        -0.738551         1.403820         1.982644
 C        -0.747592         1.253053         0.393216
 O        -0.238241         0.058811         0.006189
 C        -0.112455         2.541958        -0.083199
 C        -1.124437         3.659174         0.371311
 C        -2.289277         2.947567         0.870457
 C        -2.293548         1.406046         0.506713
 H        -3.885320         2.483483         2.866439
 H        -0.176228         2.191596         2.487404
 H        -0.637910         0.414652         2.482428
 H         0.729365        -0.007610        -0.007596
 H         0.952311         2.625484         0.388911
 H        -0.067873         2.398357        -1.145746
 H        -0.702284         4.309131         1.238423
 H        -1.427039         4.297582        -0.471273
 H        -3.218400         3.471229         0.887328
 H        -3.047027         1.124248        -0.289381
