19
Iteration:  4570charge 0 multiplicity 1
 O        -3.041725         1.903900         3.080277
 C        -2.200330         1.873461         1.960654
 C        -0.766739         1.438499         2.131655
 C        -0.726597         1.316536         0.550891
 O        -0.394941         0.084208        -0.039839
 C        -0.016526         2.601590        -0.126739
 C        -1.093257         3.641652         0.315446
 C        -2.357707         2.892892         0.731185
 C        -2.220290         1.454854         0.481296
 H        -3.172153         0.986013         3.535086
 H        -0.033531         2.129596         2.549659
 H        -0.850736         0.437467         2.519033
 H         0.437814        -0.201388         0.312971
 H         1.053365         2.911536         0.170251
 H        -0.118700         2.484095        -1.170580
 H        -0.800329         4.284914         1.112071
 H        -1.280502         4.361666        -0.508560
 H        -3.468447         3.251473         0.857126
 H        -2.788272         0.794921        -0.198413
