19
Iteration:  3359charge 0 multiplicity 1
 O        -3.039652         1.763323         3.095597
 C        -2.184964         1.910499         1.961001
 C        -0.748165         1.516663         2.030417
 C        -0.768127         1.250087         0.480427
 O        -0.165517         0.079643         0.198379
 C        -0.268474         2.410053        -0.292969
 C        -1.047825         3.638043         0.326273
 C        -2.304369         2.981631         0.923008
 C        -2.260099         1.549115         0.473136
 H        -3.851434         2.191671         2.828051
 H        -0.147597         2.367246         2.425141
 H        -0.579048         0.612047         2.543747
 H         0.050249         0.153360        -0.756693
 H         0.800403         2.635949        -0.225694
 H        -0.523920         2.252571        -1.346734
 H        -0.507793         4.150473         1.165643
 H        -1.240302         4.451796        -0.432500
 H        -3.221777         3.503479         0.728533
 H        -3.084833         0.989372        -0.070234
