19
Iteration:  4494
 O        -3.090140         1.890144         3.021513
 C        -2.204397         1.942377         1.976685
 C        -0.793848         1.341919         2.172391
 C        -0.736451         1.305645         0.595961
 O        -0.268624         0.169887        -0.015223
 C        -0.108162         2.465632        -0.233229
 C        -1.056419         3.696313         0.324418
 C        -2.290608         2.920977         0.845125
 C        -2.265441         1.465459         0.528289
 H        -3.580298         1.111935         3.101980
 H        -0.059757         2.013399         2.631934
 H        -0.707957         0.354239         2.524414
 H         0.688971         0.147151        -0.306266
 H         0.921854         2.592553        -0.280520
 H        -0.522861         2.262265        -1.121333
 H        -0.581222         4.187608         1.073908
 H        -1.426090         4.371280        -0.461434
 H        -3.294520         3.425847         0.724266
 H        -2.815843         0.799500        -0.135406
