19
Iteration:  4857charge 0 multiplicity 1
 O        -3.184940         1.970730         2.930519
 C        -2.130968         1.970548         2.004884
 C        -0.687038         1.375717         2.058668
 C        -0.750918         1.216615         0.471971
 O        -0.100337         0.095098        -0.011294
 C        -0.106424         2.530693        -0.138650
 C        -1.109075         3.675452         0.371001
 C        -2.350010         2.928076         0.945997
 C        -2.381060         1.442923         0.576545
 H        -3.472693         1.028917         3.168705
 H         0.182440         2.019081         2.342833
 H        -0.647344         0.545545         2.636773
 H        -0.528565        -0.392998        -0.756102
 H         0.930722         2.756006         0.273573
 H         0.020436         2.425371        -1.202183
 H        -0.697640         4.152541         1.174946
 H        -1.391355         4.345751        -0.471690
 H        -3.281732         3.461277         1.154317
 H        -2.941519         0.811977        -0.150153
