19
Iteration:  2255
 O        -3.123038         1.925424         3.074931
 C        -2.121551         1.860459         2.099765
 C        -0.660357         1.484061         2.151030
 C        -0.737315         1.338623         0.421192
 O        -0.330325        -0.039013         0.033786
 C        -0.166565         2.522205        -0.359629
 C        -1.102847         3.694345         0.214090
 C        -2.301032         2.891099         0.988014
 C        -2.231666         1.503808         0.589982
 H        -3.614228         1.145681         2.918436
 H         0.033709         2.141474         2.614556
 H        -0.472280         0.491300         2.594530
 H         0.502584         0.108689        -0.510703
 H         0.886914         2.713023        -0.187951
 H        -0.322043         2.418230        -1.444891
 H        -0.645668         4.288745         0.995382
 H        -1.518270         4.290013        -0.596809
 H        -3.272143         3.444232         0.958347
 H        -3.051362         1.118094         0.038324
