19
Iteration:  1243
 O        -3.146836         1.902350         2.995221
 C        -2.157239         1.901575         2.037253
 C        -0.764283         1.437583         2.072336
 C        -0.752677         1.276834         0.479438
 O        -0.156130         0.008253        -0.040699
 C        -0.070529         2.476155        -0.098807
 C        -1.101910         3.707579         0.243981
 C        -2.334165         3.035395         0.877389
 C        -2.304610         1.519755         0.539632
 H        -3.081736         1.279183         3.668235
 H        -0.043156         2.046806         2.674702
 H        -0.731280         0.359182         2.630742
 H        -0.824091        -0.680124        -0.025211
 H         0.835785         2.509028         0.593869
 H         0.120550         2.265468        -1.159127
 H        -0.469857         4.325435         0.868070
 H        -1.431552         4.246334        -0.659696
 H        -3.251188         3.628050         0.781187
 H        -3.028383         1.077831        -0.103371
