19
Iteration:  2276
 O        -3.089867         1.922682         3.136112
 C        -2.186382         1.999621         2.036330
 C        -0.617273         1.415526         2.102001
 C        -0.712413         1.228488         0.662713
 O        -0.304112         0.130591        -0.195681
 C        -0.201349         2.428376        -0.173154
 C        -1.122367         3.674911         0.159083
 C        -2.279974         2.963634         0.886100
 C        -2.305798         1.427563         0.627948
 H        -3.585884         1.067973         2.976396
 H         0.181140         1.978575         2.539222
 H        -0.665120         0.444453         2.669118
 H         0.643839         0.138071        -0.041252
 H         0.803095         2.746922         0.057934
 H        -0.312785         2.217358        -1.230509
 H        -0.579515         4.474892         0.603834
 H        -1.480094         3.916344        -0.827185
 H        -3.206130         3.609025         0.851695
 H        -2.972039         0.781844         0.108779
