19
Iteration:  1595charge 0 multiplicity 1
 O        -3.087214         1.947460         3.002072
 C        -2.094456         2.008355         2.006730
 C        -0.688315         1.341594         2.098639
 C        -0.720567         1.265857         0.535112
 O        -0.338217        -0.041623        -0.063221
 C        -0.145019         2.627718        -0.008692
 C        -1.145644         3.715361         0.193837
 C        -2.324984         2.935752         0.810830
 C        -2.233462         1.423778         0.597662
 H        -3.772688         1.261095         2.665434
 H         0.177031         1.783069         2.544241
 H        -1.105161         0.415798         2.677190
 H         0.593973        -0.211264         0.210740
 H         0.836746         2.732830         0.533258
 H         0.182562         2.591809        -1.032493
 H        -0.687986         4.544335         0.754318
 H        -1.504335         4.201279        -0.760179
 H        -3.266202         3.527039         0.756142
 H        -2.999327         0.721350         0.181686
