19
Iteration:  1088charge 0 multiplicity 1
 O        -3.138788         1.821125         2.921076
 C        -2.113088         1.942101         2.010518
 C        -0.624426         1.461164         2.152293
 C        -0.752885         1.254452         0.454655
 O        -0.222826         0.078427         0.059658
 C        -0.182841         2.461190        -0.230251
 C        -1.110496         3.688787         0.352584
 C        -2.277231         2.933728         0.940747
 C        -2.303301         1.493660         0.545216
 H        -3.661973         2.688130         2.852012
 H        -0.051609         2.037086         2.802608
 H        -0.710857         0.466577         2.655989
 H        -0.919312        -0.539654        -0.266787
 H         0.834098         2.709832         0.112900
 H         0.003780         2.478220        -1.325327
 H        -0.422577         4.273926         0.952005
 H        -1.276021         4.235457        -0.559071
 H        -3.301160         3.329891         0.972436
 H        -2.911898         0.980644        -0.231687
