19
Iteration:  2546
 O        -2.946518         1.916897         3.134124
 C        -2.169492         1.977718         1.992154
 C        -0.800269         1.413308         2.084601
 C        -0.807978         1.219259         0.502476
 O        -0.149365         0.141763        -0.066811
 C        -0.131995         2.428268        -0.175096
 C        -1.127211         3.639399         0.219278
 C        -2.365626         2.989524         0.867825
 C        -2.319476         1.525876         0.560525
 H        -3.068485         0.935034         3.307478
 H        -0.022918         2.001506         2.521665
 H        -0.931302         0.402482         2.445811
 H        -0.697890        -0.679147         0.122836
 H         0.905428         2.517510         0.222509
 H        -0.158660         2.428187        -1.257418
 H        -0.605239         4.286580         0.969924
 H        -1.396599         4.208942        -0.722322
 H        -3.275267         3.559256         1.043785
 H        -3.121324         0.971450         0.009919
