19
Iteration:  1593charge 0 multiplicity 1
 O        -3.099215         1.948379         3.012976
 C        -2.090343         2.005899         2.003714
 C        -0.689594         1.317687         2.100762
 C        -0.742356         1.254906         0.541085
 O        -0.341173        -0.021716        -0.068874
 C        -0.132187         2.618230        -0.013199
 C        -1.148949         3.713337         0.198214
 C        -2.324439         2.951582         0.800177
 C        -2.220080         1.412375         0.603095
 H        -3.752050         1.248304         2.698885
 H         0.178023         1.814122         2.551371
 H        -1.045356         0.400857         2.642623
 H         0.615199        -0.065062         0.280440
 H         0.846731         2.731834         0.502042
 H         0.214928         2.570345        -1.041822
 H        -0.682548         4.617523         0.681179
 H        -1.506790         4.158030        -0.788960
 H        -3.243459         3.553508         0.726131
 H        -2.986266         0.736374         0.198320
