19
Iteration:  4800
 O        -3.105311         1.821267         3.017438
 C        -2.220015         1.842764         1.923754
 C        -0.737705         1.509760         2.038768
 C        -0.692344         1.302853         0.469176
 O        -0.234569         0.024870         0.225775
 C        -0.209325         2.542443        -0.290358
 C        -1.015257         3.680778         0.475877
 C        -2.274843         2.950931         0.804276
 C        -2.327894         1.546797         0.441424
 H        -3.019369         1.002869         3.556897
 H        -0.002956         2.084860         2.661506
 H        -0.705738         0.501497         2.362897
 H        -0.110197        -0.149279        -0.711953
 H         0.848115         2.794367        -0.084933
 H        -0.355374         2.474748        -1.370592
 H        -0.465699         4.147135         1.267647
 H        -1.196155         4.546933        -0.153005
 H        -3.291110         3.369662         0.779533
 H        -3.116144         1.052118        -0.185656
