19
Iteration:  2381charge 0 multiplicity 1
 O        -3.156687         1.858089         3.076448
 C        -2.087655         2.067160         2.036968
 C        -0.598339         1.532043         2.085574
 C        -0.796430         1.200306         0.539089
 O        -0.231536         0.054231        -0.068840
 C        -0.299615         2.449994        -0.276755
 C        -1.076554         3.620913         0.332877
 C        -2.273976         2.970694         0.797678
 C        -2.339475         1.456364         0.687828
 H        -3.358819         0.964587         2.872583
 H         0.275625         2.137390         2.407569
 H        -0.760802         0.608131         2.641675
 H         0.616840         0.278203        -0.483501
 H         0.850068         2.553395        -0.185774
 H        -0.512732         2.317203        -1.376669
 H        -0.265262         3.964926         1.053673
 H        -1.194698         4.545940        -0.303335
 H        -3.200742         3.509273         0.638365
 H        -3.160377         0.834914         0.542061
