19
Iteration:   980charge 0 multiplicity 1
 O        -3.161720         1.735914         2.939405
 C        -2.210779         1.922490         2.025421
 C        -0.670423         1.488199         2.118601
 C        -0.719272         1.311870         0.581702
 O        -0.390703         0.054301        -0.047233
 C        -0.060240         2.470229        -0.163982
 C        -1.102292         3.706084         0.272773
 C        -2.252038         2.986114         0.846141
 C        -2.173205         1.484229         0.584907
 H        -3.501346         2.638624         3.289307
 H         0.116006         1.984218         2.695561
 H        -0.784683         0.404598         2.516305
 H         0.255089        -0.345049         0.524953
 H         1.014527         2.587089        -0.049159
 H        -0.421035         2.259910        -1.152873
 H        -0.571588         4.442293         0.849060
 H        -1.509542         4.258077        -0.615662
 H        -3.144468         3.597022         0.811710
 H        -2.939164         0.970527         0.027387
