19
Iteration:   764
 O        -3.206478         1.836390         2.894668
 C        -2.198073         1.915252         2.006213
 C        -0.765208         1.400740         2.161104
 C        -0.691819         1.255148         0.546800
 O        -0.292997         0.062995         0.003459
 C        -0.202901         2.509580        -0.258805
 C        -0.949587         3.661574         0.397888
 C        -2.237182         2.976211         0.875535
 C        -2.230567         1.472774         0.535802
 H        -3.732885         2.615637         3.068446
 H        -0.057353         2.076229         2.724981
 H        -0.805273         0.471618         2.688375
 H         0.689287        -0.069241         0.082290
 H         0.869233         2.736307        -0.329572
 H        -0.565104         2.403868        -1.334491
 H        -0.390155         4.077684         1.285123
 H        -1.104990         4.529967        -0.277200
 H        -3.249078         3.404945         1.041363
 H        -2.942608         0.937694        -0.135036
