19
Iteration:   776charge 0 multiplicity 1
 O        -3.218239         1.760182         2.922801
 C        -2.188131         1.960276         1.874989
 C        -0.719886         1.386600         2.087650
 C        -0.704718         1.305858         0.594522
 O        -0.262477         0.066834         0.036768
 C        -0.177209         2.467089        -0.200422
 C        -0.982940         3.655654         0.441578
 C        -2.286241         3.025388         0.869589
 C        -2.305286         1.512182         0.499477
 H        -3.170087         2.693661         3.374809
 H         0.134072         2.069601         2.433372
 H        -0.645555         0.387731         2.441662
 H         0.580433        -0.143118         0.470910
 H         0.934838         2.523998        -0.131369
 H        -0.524410         2.185569        -1.273308
 H        -0.356210         4.154313         1.237754
 H        -1.210955         4.315535        -0.412412
 H        -3.113653         3.744365         0.753558
 H        -3.153749         0.950807         0.101714
