19
Iteration:  1374
 O        -3.036747         2.051254         2.986902
 C        -2.232827         1.968982         1.922292
 C        -0.780239         1.350636         2.139392
 C        -0.729269         1.191210         0.620991
 O        -0.248322         0.016369        -0.032692
 C        -0.170403         2.555744        -0.142811
 C        -1.105699         3.658080         0.378762
 C        -2.313875         2.952596         0.780037
 C        -2.304318         1.425990         0.484891
 H        -2.853596         1.195116         3.430295
 H         0.076130         1.899784         2.570767
 H        -0.947719         0.352909         2.639227
 H         0.663424         0.171795        -0.315192
 H         0.848800         2.787992         0.278542
 H        -0.048346         2.569731        -1.232413
 H        -0.575060         4.204922         1.144925
 H        -1.310812         4.350538        -0.459983
 H        -3.318155         3.355316         0.915578
 H        -2.921725         0.675213        -0.082691
