19
Iteration:   175charge 0 multiplicity 1
 O        -3.203136         2.022657         2.933728
 C        -2.210189         2.003192         1.971677
 C        -0.756666         1.469782         2.085942
 C        -0.737466         1.245227         0.522704
 O        -0.126747         0.028759         0.003757
 C        -0.134315         2.505850        -0.161813
 C        -1.085396         3.563060         0.347453
 C        -2.353275         2.933300         0.842729
 C        -2.282398         1.408644         0.537409
 H        -3.092692         1.147332         3.440861
 H         0.092059         2.066949         2.722220
 H        -0.644383         0.480597         2.597766
 H         0.587321        -0.063931         0.659328
 H         0.928727         2.786845        -0.023520
 H        -0.216405         2.487623        -1.297566
 H        -0.673750         4.097028         1.194760
 H        -1.338794         4.332543        -0.352240
 H        -3.315397         3.499484         0.679458
 H        -2.919062         0.678472        -0.020226
