19
Iteration:  1395
 O        -3.062060         2.025619         3.017562
 C        -2.197036         1.854873         2.001750
 C        -0.699091         1.456254         2.037980
 C        -0.775040         1.321238         0.470379
 O        -0.380039         0.045722        -0.026497
 C        -0.011562         2.530816         0.060978
 C        -1.113186         3.632947         0.292493
 C        -2.362521         2.893088         0.781422
 C        -2.265070         1.401946         0.433897
 H        -2.924655         1.329155         3.631043
 H         0.036386         2.249846         2.390220
 H        -0.587580         0.543059         2.620008
 H         0.556725        -0.167719         0.026106
 H         0.985600         2.419589         0.539210
 H         0.119852         2.594658        -1.037395
 H        -0.889677         4.245003         1.181144
 H        -1.185812         4.322611        -0.561161
 H        -3.398984         3.272146         0.736417
 H        -3.145914         0.839844         0.025521
