19
Iteration:  3427
 O        -2.956995         1.999905         3.125488
 C        -2.170584         1.783153         1.934255
 C        -0.815591         1.249262         2.152474
 C        -0.762499         1.259232         0.557235
 O        -0.237209         0.050273         0.030997
 C        -0.089640         2.688939        -0.051388
 C        -1.221207         3.703500         0.163426
 C        -2.340805         2.882699         0.812187
 C        -2.252955         1.396197         0.471847
 H        -3.056388         2.930499         3.118965
 H        -0.131415         2.003376         2.602098
 H        -0.778618         0.249816         2.555391
 H         0.022223         0.163873        -0.930619
 H         0.865676         2.706510         0.549353
 H         0.165615         2.646778        -1.117437
 H        -0.858758         4.597889         0.741003
 H        -1.565115         4.231019        -0.740775
 H        -3.406680         3.171969         0.774783
 H        -2.887533         0.809798        -0.164318
