19
Iteration:  2651
 O        -3.020924         1.879036         3.195323
 C        -2.186194         1.959681         2.027181
 C        -0.776609         1.518813         2.100553
 C        -0.795209         1.300107         0.534560
 O        -0.255641         0.058203        -0.139138
 C        -0.098561         2.362381        -0.171367
 C        -1.072377         3.597840         0.257995
 C        -2.321777         2.928595         0.954331
 C        -2.306298         1.511420         0.506593
 H        -3.881060         1.331749         3.077021
 H        -0.127229         2.384342         2.477312
 H        -0.621630         0.660526         2.748637
 H         0.413715         0.329991        -0.833858
 H         0.936145         2.563342         0.112245
 H        -0.129346         2.306563        -1.292248
 H        -0.456033         4.412238         0.641523
 H        -1.452918         4.045876        -0.641011
 H        -3.148863         3.656749         0.912850
 H        -3.003424         1.040730        -0.245407
