19
Iteration:  4525charge 0 multiplicity 1
 O        -3.135597         2.029885         3.011829
 C        -2.209308         1.946148         2.017383
 C        -0.757266         1.276996         2.090033
 C        -0.708373         1.210879         0.466979
 O        -0.149410         0.001833        -0.077114
 C        -0.086280         2.575681        -0.128232
 C        -1.172013         3.734559         0.340299
 C        -2.315922         2.938511         0.903575
 C        -2.347209         1.464325         0.503304
 H        -3.118211         1.140526         3.523921
 H        -0.012516         1.963825         2.485268
 H        -0.749150         0.246064         2.529169
 H         0.793763         0.093215         0.098651
 H         1.017781         2.643482         0.188709
 H        -0.097999         2.397182        -1.196068
 H        -0.732385         4.417583         1.041708
 H        -1.528324         4.389467        -0.461756
 H        -3.293762         3.403279         0.871766
 H        -3.146991         0.915951         0.000519
