19
Iteration:   112charge 0 multiplicity 1
 O        -3.092106         1.805027         3.013202
 C        -2.250722         1.968936         1.982983
 C        -0.745254         1.540338         2.162131
 C        -0.655822         1.298024         0.540776
 O        -0.111032         0.107014         0.011146
 C        -0.027245         2.465060        -0.104999
 C        -1.178298         3.604349         0.151834
 C        -2.346893         2.965717         0.827143
 C        -2.319363         1.411900         0.587042
 H        -3.769054         2.557351         3.102452
 H        -0.132394         2.100278         2.638933
 H        -0.794981         0.508328         2.479808
 H        -0.791980        -0.605135         0.025135
 H         0.901002         2.837242         0.311432
 H         0.191449         2.250475        -1.145527
 H        -0.702204         4.314140         0.843070
 H        -1.419348         4.138329        -0.757949
 H        -3.369679         3.365268         0.520933
 H        -3.147313         0.766313         0.194104
