19
Iteration:   279
 O        -3.128128         1.806247         3.043101
 C        -2.254384         1.985063         1.975885
 C        -0.790630         1.519726         2.094657
 C        -0.753990         1.285417         0.549492
 O        -0.180422         0.084165         0.048211
 C        -0.011658         2.468349        -0.058638
 C        -1.061909         3.592000         0.317809
 C        -2.342653         2.924287         0.830110
 C        -2.209331         1.470391         0.381233
 H        -3.737254         2.565265         3.034365
 H         0.108924         2.064624         2.476033
 H        -0.910951         0.443643         2.594803
 H        -0.939805        -0.515734        -0.168762
 H         1.028934         2.768437         0.173188
 H        -0.126991         2.297200        -1.130186
 H        -0.646061         4.415548         1.001786
 H        -1.330868         4.365659        -0.507842
 H        -3.213348         3.529629         0.598793
 H        -2.774016         0.749939        -0.251121
