19
Iteration:  4701charge 0 multiplicity 1
 O        -3.054187         2.011927         2.997101
 C        -2.161647         1.925299         1.936588
 C        -0.745013         1.293676         1.958264
 C        -0.731231         1.220028         0.475862
 O        -0.081542         0.032338         0.049473
 C        -0.132171         2.582105         0.009579
 C        -1.179616         3.677820         0.322388
 C        -2.346422         2.974748         0.900134
 C        -2.376993         1.496239         0.453520
 H        -3.139388         1.304550         3.618503
 H         0.117336         1.784186         2.441637
 H        -0.853929         0.466734         2.557072
 H        -0.303045        -0.178154        -0.851485
 H         0.784903         2.527419         0.627979
 H         0.156572         2.354072        -1.025853
 H        -0.876302         4.426225         1.090230
 H        -1.551410         4.089958        -0.629415
 H        -3.379708         3.432315         0.836032
 H        -3.278127         0.932238         0.274179
