19
Iteration:   649
 O        -3.213587         1.954631         2.806725
 C        -2.157731         1.886257         1.987546
 C        -0.749503         1.364059         2.131581
 C        -0.726567         1.268004         0.612296
 O        -0.257322         0.064496        -0.035745
 C        -0.085393         2.496184        -0.035335
 C        -1.013471         3.725543         0.322295
 C        -2.223182         2.942994         0.921901
 C        -2.311983         1.435258         0.528757
 H        -2.923794         1.411969         3.538842
 H        -0.117398         2.050636         2.676243
 H        -0.521433         0.259175         2.441759
 H        -0.840672        -0.047438        -0.836434
 H         0.959376         2.828640         0.214950
 H        -0.079951         2.418093        -1.090276
 H        -0.626735         4.521482         1.020031
 H        -1.385735         4.427840        -0.470624
 H        -3.188978         3.421230         0.936449
 H        -3.106499         0.861994        -0.035271
