19
Iteration:  1749charge 0 multiplicity 1
 O        -2.945996         2.006696         3.050574
 C        -2.155912         1.929565         1.898961
 C        -0.803060         1.430740         2.030197
 C        -0.753401         1.227227         0.508175
 O        -0.221423         0.066030        -0.014749
 C        -0.138710         2.519709         0.076924
 C        -1.139659         3.664930         0.278496
 C        -2.349584         2.925384         0.673290
 C        -2.413177         1.412537         0.499950
 H        -2.842499         1.181213         3.468670
 H        -0.047810         1.962086         2.518385
 H        -0.989111         0.433342         2.588878
 H         0.632879        -0.235199         0.311971
 H         0.751608         2.611689         0.769913
 H         0.216092         2.598077        -0.951893
 H        -0.994001         4.234828         1.203954
 H        -1.301379         4.434737        -0.510693
 H        -3.251034         3.499989         0.786475
 H        -3.036648         0.679878         0.000392
