19
Iteration:  3618charge 0 multiplicity 1
 O        -3.099570         1.978383         2.942272
 C        -2.050755         1.971901         2.018608
 C        -0.672749         1.342210         2.069665
 C        -0.791407         1.160914         0.543180
 O        -0.157331         0.037644        -0.034909
 C        -0.102135         2.622037         0.063666
 C        -1.215258         3.695179         0.244642
 C        -2.344779         2.867189         0.767117
 C        -2.317033         1.407542         0.581054
 H        -3.008790         2.881999         3.422695
 H         0.304768         1.725842         2.425743
 H        -0.876837         0.295507         2.378234
 H        -0.568473        -0.002126        -0.895834
 H         0.841087         2.764967         0.599898
 H        -0.124562         2.582809        -1.031752
 H        -0.995339         4.452413         0.957060
 H        -1.591801         4.146758        -0.681647
 H        -3.362728         3.159879         0.786436
 H        -3.149716         0.806406         0.428081
