19
Iteration:  3410
 O        -2.998102         1.964944         3.089490
 C        -2.162100         1.970947         1.985488
 C        -0.739167         1.327989         2.112572
 C        -0.700660         1.291965         0.572170
 O        -0.282144         0.070928        -0.008834
 C        -0.105874         2.556949        -0.024508
 C        -1.195136         3.670213         0.241769
 C        -2.360136         2.808434         0.811462
 C        -2.245051         1.379034         0.465738
 H        -3.480939         2.745878         3.173482
 H         0.083704         1.774513         2.687650
 H        -0.893650         0.250311         2.463991
 H         0.179870         0.396677        -0.830328
 H         0.848154         3.013443         0.195418
 H        -0.223798         2.352826        -1.111164
 H        -0.882909         4.486873         0.903079
 H        -1.550949         3.932441        -0.761816
 H        -3.281829         3.416995         0.739209
 H        -2.792562         0.861642        -0.352806
