19
Iteration:  4491
 O        -3.092821         1.876558         3.013186
 C        -2.176571         1.943159         1.968316
 C        -0.791662         1.374320         2.180336
 C        -0.726651         1.290919         0.599839
 O        -0.263688         0.148007        -0.011085
 C        -0.128008         2.460679        -0.225191
 C        -1.044552         3.715488         0.329812
 C        -2.305054         2.929825         0.832583
 C        -2.289031         1.472460         0.525274
 H        -3.651911         1.029906         3.085201
 H        -0.011052         2.003278         2.602584
 H        -0.662765         0.325960         2.645903
 H         0.606832         0.014246        -0.344436
 H         1.005987         2.715027        -0.285030
 H        -0.516117         2.352901        -1.276239
 H        -0.524660         4.258701         1.149409
 H        -1.452226         4.378136        -0.422905
 H        -3.230684         3.349779         0.736062
 H        -2.903004         0.822534        -0.088352
