19
Iteration:  1626charge 0 multiplicity 1
 O        -3.016431         1.890972         3.041983
 C        -2.207142         1.850277         1.915960
 C        -0.687371         1.496968         2.083510
 C        -0.745891         1.332185         0.496175
 O        -0.392388         0.012637         0.078748
 C        -0.091335         2.536573        -0.125344
 C        -1.060567         3.690784         0.380193
 C        -2.363368         2.911301         0.803884
 C        -2.240393         1.463846         0.433791
 H        -3.807374         1.417820         2.889449
 H         0.055734         2.231937         2.383080
 H        -0.716164         0.720750         2.857168
 H         0.550711        -0.167818         0.255899
 H         0.961357         2.518829         0.227347
 H        -0.217284         2.489654        -1.196049
 H        -0.588002         4.304637         1.187961
 H        -1.400757         4.284716        -0.515275
 H        -3.312495         3.485498         0.696692
 H        -2.815042         0.751395        -0.212223
