19
Iteration:  3644
 O        -3.022870         1.812468         3.126482
 C        -2.217789         1.948398         1.949679
 C        -0.826828         1.463272         2.142188
 C        -0.733800         1.222427         0.551666
 O        -0.226474         0.093173         0.003814
 C        -0.031841         2.512357        -0.054868
 C        -1.171950         3.615931         0.173478
 C        -2.351899         2.981423         0.759170
 C        -2.253263         1.431777         0.505236
 H        -2.864674         2.672971         3.632961
 H         0.055866         2.028728         2.523394
 H        -0.825197         0.472226         2.501898
 H        -0.029211         0.268659        -0.910997
 H         0.864615         2.749563         0.534731
 H         0.087374         2.316886        -1.223326
 H        -0.748773         4.390099         0.855120
 H        -1.624029         4.111845        -0.695699
 H        -3.425877         3.446522         0.812268
 H        -3.031252         0.814931        -0.065483
