19
Iteration:   950
 O        -3.135708         1.713725         2.928115
 C        -2.219681         1.971928         1.912164
 C        -0.681100         1.577293         2.077295
 C        -0.793941         1.262414         0.519843
 O        -0.399062        -0.057273         0.096467
 C        -0.062198         2.511063        -0.162922
 C        -1.011887         3.732948         0.317460
 C        -2.314430         2.997173         0.857147
 C        -2.268209         1.464591         0.537923
 H        -2.752422         1.676107         3.779147
 H         0.169709         2.239004         2.388030
 H        -0.791574         0.669814         2.632772
 H         0.592588         0.047831         0.082923
 H         1.003309         2.592932         0.050417
 H        -0.026668         2.456283        -1.256897
 H        -0.450444         4.387007         1.019728
 H        -1.291929         4.509594        -0.442751
 H        -3.178757         3.648221         0.911159
 H        -3.095551         0.927896         0.092763
