19
Iteration:  2262charge 0 multiplicity 1
 O        -3.161913         1.925677         3.137383
 C        -2.106317         1.879458         2.084157
 C        -0.684075         1.443062         2.128408
 C        -0.722682         1.306124         0.451579
 O        -0.321186         0.035170        -0.048773
 C        -0.217021         2.503505        -0.248980
 C        -1.099235         3.636340         0.153725
 C        -2.273511         2.969448         0.941422
 C        -2.178284         1.501326         0.619265
 H        -3.754971         1.143011         3.012374
 H         0.051077         2.225306         2.486451
 H        -0.449181         0.443698         2.604723
 H         0.590913         0.036379        -0.407883
 H         0.887713         2.615285        -0.192978
 H        -0.322567         2.231269        -1.310642
 H        -0.655519         4.360913         0.839487
 H        -1.575399         4.259959        -0.615596
 H        -3.280531         3.326441         0.904512
 H        -2.971433         0.995067         0.078437
