19
Iteration:  4777charge 0 multiplicity 1
 O        -3.105576         1.819019         2.922962
 C        -2.156791         2.001162         1.956363
 C        -0.696844         1.465648         2.000495
 C        -0.810004         1.190436         0.500413
 O        -0.247553        -0.033417         0.128150
 C        -0.118794         2.603057        -0.140023
 C        -1.063701         3.673213         0.375564
 C        -2.338490         3.011277         0.942798
 C        -2.300350         1.490961         0.505144
 H        -3.270752         0.841863         3.094601
 H         0.001262         2.327669         2.167629
 H        -0.407201         0.590619         2.603165
 H         0.169543         0.020411        -0.776124
 H         0.887447         2.769306         0.255526
 H        -0.020242         2.398238        -1.225928
 H        -0.592476         4.424990         1.049393
 H        -1.312243         4.372568        -0.410141
 H        -3.394196         3.375464         0.914352
 H        -3.175038         0.956505         0.188428
