19
Iteration:  2758charge 0 multiplicity 1
 O        -3.098549         1.690932         3.036326
 C        -2.128352         2.026961         2.061854
 C        -0.627914         1.570227         2.011895
 C        -0.812219         1.285538         0.518481
 O        -0.180423         0.024740        -0.048793
 C        -0.192168         2.439331        -0.238854
 C        -1.039466         3.636610         0.411019
 C        -2.355168         2.999860         0.803163
 C        -2.316476         1.507185         0.572964
 H        -3.337149         2.587554         3.451698
 H         0.104482         2.250950         2.363878
 H        -0.605360         0.623699         2.554066
 H        -0.893457        -0.654745        -0.153097
 H         0.879953         2.495914        -0.070929
 H        -0.403404         2.463106        -1.313135
 H        -0.578025         4.138336         1.286543
 H        -1.106046         4.443509        -0.392492
 H        -3.318452         3.577475         0.909884
 H        -3.190967         0.904905         0.236453
