19
Iteration:  2643
 O        -3.057082         1.865936         3.210807
 C        -2.205161         1.890624         1.987716
 C        -0.788296         1.515503         2.198162
 C        -0.761970         1.262916         0.459066
 O        -0.269166         0.038685        -0.092157
 C        -0.167603         2.495561        -0.291016
 C        -1.018234         3.595267         0.238767
 C        -2.245212         2.997134         0.934887
 C        -2.307727         1.474588         0.580626
 H        -3.781733         1.176550         2.990544
 H        -0.057043         2.368852         2.476026
 H        -0.788392         0.578262         2.770389
 H         0.466320         0.445156        -0.635825
 H         0.891833         2.573095         0.060510
 H        -0.200944         2.136749        -1.322715
 H        -0.475921         4.430495         0.777133
 H        -1.351743         4.105237        -0.701694
 H        -3.101624         3.589305         0.930266
 H        -3.031355         1.217518        -0.167961
