19
Iteration:   692
 O        -3.008006         1.830422         3.087053
 C        -2.249829         1.958516         1.927970
 C        -0.913694         1.323800         1.975680
 C        -0.779889         1.265550         0.504572
 O        -0.171059        -0.047165         0.139374
 C        -0.040177         2.593494        -0.004872
 C        -1.025471         3.718293         0.286032
 C        -2.296838         3.076569         0.806479
 C        -2.361697         1.533787         0.449403
 H        -3.525833         1.063814         2.892107
 H        -0.086841         1.862572         2.442379
 H        -1.115398         0.390028         2.512127
 H        -0.053962        -0.133558        -0.833119
 H         0.966262         2.623282         0.452351
 H         0.146554         2.454181        -1.034694
 H        -0.519865         4.413224         1.008840
 H        -1.164663         4.289828        -0.645330
 H        -3.195745         3.668283         0.768055
 H        -3.151244         1.075031        -0.155186
