19
Iteration:   246
 O        -3.141786         1.671193         2.926209
 C        -2.258481         1.934055         1.947254
 C        -0.722385         1.472950         2.007296
 C        -0.776858         1.290601         0.492080
 O        -0.170164        -0.032970         0.298838
 C        -0.095718         2.603300        -0.081197
 C        -1.025727         3.767793         0.290656
 C        -2.266151         3.069619         0.760484
 C        -2.363689         1.496526         0.448288
 H        -2.896095         2.386209         3.628270
 H         0.173576         1.957861         2.416680
 H        -0.779820         0.392514         2.539331
 H        -0.667271        -0.648763        -0.263168
 H         0.984132         2.578149         0.104409
 H        -0.182402         2.393623        -1.142948
 H        -0.512530         4.321640         1.124805
 H        -1.316539         4.259109        -0.718580
 H        -3.165105         3.635340         0.651154
 H        -3.119075         0.768992         0.047601
