19
Iteration:  2711charge 0 multiplicity 1
 O        -2.934419         1.958366         3.138559
 C        -2.189388         1.921800         2.032458
 C        -0.719756         1.211297         2.065895
 C        -0.683062         1.274829         0.494007
 O        -0.228488         0.037876         0.024270
 C        -0.184070         2.573941        -0.096958
 C        -1.165992         3.688060         0.269301
 C        -2.317715         2.966786         0.880606
 C        -2.255247         1.540037         0.401036
 H        -3.914480         1.971146         2.919680
 H         0.104171         1.734682         2.632979
 H        -0.915122         0.147188         2.460852
 H        -0.813205        -0.291546        -0.685034
 H         0.857956         2.888937         0.077707
 H        -0.340507         2.438167        -1.171658
 H        -0.679250         4.510293         0.852039
 H        -1.717278         4.133896        -0.632333
 H        -3.361931         3.380386         0.926827
 H        -2.993151         0.907226        -0.168508
