19
Iteration:  4670
 O        -3.056480         1.945636         3.063716
 C        -2.237668         1.890003         1.930041
 C        -0.810380         1.437117         2.051205
 C        -0.720746         1.296829         0.529387
 O        -0.253065         0.048942         0.069582
 C        -0.125335         2.541436        -0.169871
 C        -1.037115         3.683009         0.407942
 C        -2.384805         2.906399         0.825536
 C        -2.236835         1.422275         0.415238
 H        -2.840528         1.160315         3.671759
 H        -0.092531         2.127467         2.537202
 H        -0.858160         0.540539         2.634579
 H         0.120027         0.222487        -0.843910
 H         1.039214         2.665257         0.036904
 H        -0.244019         2.382790        -1.234381
 H        -0.636822         4.149732         1.230871
 H        -1.233578         4.496534        -0.333783
 H        -3.390117         3.470983         0.686165
 H        -2.859944         0.626920        -0.026416
