19
Iteration:  2805
 O        -3.152303         1.797551         3.049526
 C        -2.108154         1.802243         2.005518
 C        -0.697831         1.426313         2.095038
 C        -0.705093         1.316771         0.470691
 O        -0.316452         0.064900         0.055216
 C        -0.202683         2.538415        -0.310220
 C        -1.063049         3.704416         0.235940
 C        -2.261879         3.003740         0.977940
 C        -2.339448         1.538461         0.483855
 H        -2.657822         1.316745         3.694410
 H        -0.029088         2.181969         2.495039
 H        -0.561223         0.458777         2.498877
 H         0.108693        -0.306320         0.817886
 H         0.895511         2.696586        -0.120447
 H        -0.295410         2.442127        -1.410907
 H        -0.446541         4.224816         1.014824
 H        -1.333131         4.418437        -0.535520
 H        -3.163923         3.533342         0.922331
 H        -3.068645         1.147222        -0.198228
