19
Iteration:   280charge 0 multiplicity 1
 O        -3.139430         1.812451         3.052243
 C        -2.247129         1.981077         1.969167
 C        -0.782793         1.521509         2.099126
 C        -0.750221         1.282256         0.555551
 O        -0.182725         0.090384         0.038971
 C        -0.015928         2.466424        -0.061151
 C        -1.055799         3.590553         0.323156
 C        -2.341453         2.918003         0.827667
 C        -2.208262         1.462326         0.382162
 H        -3.776098         2.577742         3.008376
 H         0.120259         2.033551         2.496098
 H        -0.907453         0.465533         2.562814
 H        -0.944024        -0.498197        -0.156325
 H         1.009101         2.776647         0.168478
 H        -0.136375         2.322404        -1.129827
 H        -0.657749         4.438586         0.992989
 H        -1.338391         4.353285        -0.509516
 H        -3.192678         3.540337         0.570867
 H        -2.775790         0.752208        -0.242449
