19
Iteration:  4193charge 0 multiplicity 1
 O        -2.990198         1.973241         3.147012
 C        -2.226689         1.790142         1.928430
 C        -0.855570         1.326377         2.130421
 C        -0.722315         1.272242         0.546981
 O        -0.226025         0.096783        -0.024614
 C        -0.103451         2.564101        -0.124249
 C        -1.072191         3.666323         0.300028
 C        -2.351901         2.896772         0.886622
 C        -2.296046         1.462034         0.367306
 H        -3.707538         2.499900         2.915469
 H        -0.111041         1.889592         2.702987
 H        -1.059775         0.280217         2.467700
 H         0.591895         0.388598        -0.505284
 H         0.877876         2.924732         0.461081
 H         0.010568         2.470266        -1.196161
 H        -0.632158         4.401378         1.098065
 H        -1.405224         4.128040        -0.639893
 H        -3.319019         3.345368         0.991396
 H        -2.826379         0.689551        -0.312248
