19
Iteration:  2713charge 0 multiplicity 1
 O        -2.941674         1.948611         3.150387
 C        -2.197817         1.931673         2.025839
 C        -0.727266         1.237963         2.085406
 C        -0.683347         1.263203         0.478435
 O        -0.213638         0.048684         0.013512
 C        -0.192737         2.560064        -0.101380
 C        -1.148437         3.682294         0.267261
 C        -2.305238         2.953237         0.891704
 C        -2.271251         1.551090         0.415596
 H        -3.936891         1.992438         2.907098
 H         0.057645         1.747833         2.595193
 H        -0.824377         0.148660         2.416909
 H        -0.846968        -0.278958        -0.687575
 H         0.854814         2.789133         0.079514
 H        -0.314508         2.360033        -1.179366
 H        -0.712902         4.540958         0.822556
 H        -1.714440         4.154221        -0.611463
 H        -3.386530         3.405055         0.936515
 H        -2.939782         0.911269        -0.280586
