19
Iteration:  3431charge 0 multiplicity 1
 O        -2.961690         1.996417         3.131755
 C        -2.193729         1.783254         1.909442
 C        -0.809711         1.267325         2.143626
 C        -0.740435         1.276068         0.524245
 O        -0.213533         0.030038         0.035211
 C        -0.089505         2.656494        -0.042850
 C        -1.226250         3.738304         0.156581
 C        -2.351092         2.839983         0.815926
 C        -2.258313         1.431860         0.484447
 H        -3.064736         2.995848         3.170225
 H        -0.046786         1.922101         2.566943
 H        -0.818585         0.203957         2.592827
 H        -0.042561         0.197256        -0.889092
 H         0.785306         2.783276         0.640457
 H         0.211614         2.637060        -1.143979
 H        -0.785955         4.498008         0.809843
 H        -1.613174         4.163312        -0.771683
 H        -3.381576         3.284098         0.874842
 H        -2.988099         0.842039        -0.048932
