19
Iteration:  3757charge 0 multiplicity 1
 O        -3.050199         1.806832         3.041152
 C        -2.194712         1.940015         1.973777
 C        -0.728642         1.432806         1.994094
 C        -0.775007         1.251686         0.501018
 O        -0.093915         0.062292         0.112163
 C        -0.153306         2.533212        -0.107453
 C        -1.101886         3.712302         0.266790
 C        -2.353823         2.939315         0.878935
 C        -2.363284         1.464225         0.469506
 H        -3.076365         2.650852         3.426860
 H         0.029178         2.091204         2.338992
 H        -0.656795         0.328431         2.337881
 H        -0.823580        -0.556841         0.031548
 H         0.900584         2.727546         0.309136
 H        -0.097776         2.457815        -1.213666
 H        -0.465154         4.467826         0.815282
 H        -1.544162         4.202749        -0.622922
 H        -3.304091         3.414667         0.727617
 H        -3.180847         0.900344         0.043181
