19
Iteration:   763charge 0 multiplicity 1
 O        -3.207950         1.839706         2.895496
 C        -2.191701         1.910568         2.018994
 C        -0.769261         1.408644         2.167830
 C        -0.692054         1.253833         0.538442
 O        -0.294758         0.056037        -0.000452
 C        -0.206232         2.514690        -0.256326
 C        -0.938083         3.666142         0.390514
 C        -2.238383         2.970287         0.878566
 C        -2.225532         1.473580         0.537057
 H        -3.732815         2.611520         3.021315
 H        -0.082720         2.065948         2.735083
 H        -0.820555         0.462343         2.686596
 H         0.687631        -0.040659         0.065687
 H         0.854784         2.724713        -0.343606
 H        -0.547807         2.416941        -1.312694
 H        -0.418145         4.038396         1.301798
 H        -1.155806         4.549002        -0.276121
 H        -3.266835         3.403990         1.012627
 H        -2.923249         0.933290        -0.153051
