19
Iteration:   594charge 0 multiplicity 1
 O        -3.078883         1.920768         3.043775
 C        -2.229624         1.814436         1.909882
 C        -0.845607         1.356777         2.110281
 C        -0.799916         1.249132         0.480821
 O        -0.193367         0.056050         0.188495
 C        -0.147870         2.509649        -0.205723
 C        -0.929048         3.695005         0.434137
 C        -2.296700         3.020064         0.797310
 C        -2.308013         1.565785         0.357269
 H        -3.533547         1.090563         3.071085
 H        -0.175632         2.062725         2.613709
 H        -0.782704         0.343105         2.650961
 H         0.065905        -0.173547        -0.717599
 H         0.957814         2.690183        -0.020370
 H        -0.352214         2.642089        -1.260008
 H        -0.473876         3.979944         1.417247
 H        -1.085080         4.509611        -0.301279
 H        -3.209883         3.645819         0.905158
 H        -2.952855         0.931901        -0.313828
