19
Iteration:  2747charge 0 multiplicity 1
 O        -3.074000         1.729070         3.106269
 C        -2.149306         1.999766         1.984737
 C        -0.736680         1.543987         2.069595
 C        -0.767490         1.239698         0.445819
 O        -0.152707         0.099912        -0.071988
 C        -0.160694         2.469504        -0.222055
 C        -0.960957         3.627916         0.338581
 C        -2.335711         2.969158         0.895775
 C        -2.436615         1.484306         0.637320
 H        -3.725726         2.500586         3.304060
 H        -0.009583         2.267546         2.283641
 H        -0.399330         0.634684         2.571078
 H        -0.843391        -0.511185        -0.446447
 H         0.885053         2.458825         0.065957
 H        -0.178082         2.337971        -1.317838
 H        -0.448498         4.195184         1.145943
 H        -1.271128         4.334025        -0.516463
 H        -3.202137         3.667111         0.639062
 H        -3.183279         0.712816         0.291631
