19
Iteration:  4387
 O        -3.119001         1.963165         2.966287
 C        -2.161510         1.921812         1.993162
 C        -0.707676         1.335759         2.029330
 C        -0.775406         1.266536         0.501527
 O        -0.174045         0.054568        -0.038479
 C        -0.155869         2.505081        -0.163606
 C        -1.088803         3.706367         0.351218
 C        -2.373555         2.983297         0.872068
 C        -2.318129         1.441043         0.580296
 H        -3.378382         1.121406         3.291063
 H         0.066341         1.974080         2.525104
 H        -0.837269         0.436175         2.525599
 H         0.760119         0.001929         0.267057
 H         0.801349         2.581473         0.324439
 H         0.138415         2.539163        -1.308276
 H        -0.530505         4.324629         1.095355
 H        -1.394832         4.437219        -0.406673
 H        -3.384932         3.380911         1.052220
 H        -3.164258         0.883116         0.175322
