19
Iteration:    81
 O        -3.304931         1.897842         2.851924
 C        -2.142005         1.935337         2.007051
 C        -0.619891         1.489873         2.169995
 C        -0.656971         1.277027         0.624035
 O        -0.136632         0.086933         0.021030
 C        -0.191195         2.461871        -0.130925
 C        -1.186971         3.696025         0.176091
 C        -2.269700         2.950170         0.870342
 C        -2.231761         1.397646         0.573639
 H        -3.076599         1.949026         3.773558
 H         0.191212         2.210887         2.546401
 H        -0.414217         0.530553         2.671355
 H        -0.630712        -0.704812         0.253439
 H         0.841233         2.723854        -0.082949
 H        -0.311677         2.138217        -1.119148
 H        -0.719876         4.486363         0.831943
 H        -1.510475         4.239758        -0.744621
 H        -3.324329         3.283011         0.715191
 H        -2.976799         0.773801         0.062574
