19
Iteration:  1183
 O        -3.072657         2.083327         3.020203
 C        -2.158681         1.924605         1.946998
 C        -0.810996         1.360489         2.009170
 C        -0.677021         1.231123         0.463444
 O        -0.171027        -0.000114        -0.010604
 C        -0.121808         2.547154        -0.150620
 C        -1.112081         3.654643         0.453335
 C        -2.341916         2.905617         0.865146
 C        -2.303663         1.456414         0.452612
 H        -3.717217         1.344777         3.215773
 H        -0.038354         2.091168         2.580571
 H        -0.840705         0.424313         2.534523
 H         0.010191        -0.552316         0.732298
 H         0.925672         2.852804        -0.024941
 H        -0.191041         2.477321        -1.260066
 H        -0.626565         4.205886         1.317357
 H        -1.461181         4.410424        -0.268824
 H        -3.282274         3.491217         0.906559
 H        -3.138814         0.846620        -0.013801
