19
Iteration:  2294
 O        -2.950685         1.956659         3.061747
 C        -2.011448         2.035261         2.007089
 C        -0.756940         1.377083         2.179579
 C        -0.791794         1.200212         0.491286
 O        -0.272422         0.111535        -0.199813
 C        -0.136736         2.530509        -0.051279
 C        -1.204637         3.597079         0.150724
 C        -2.387493         2.961341         0.810825
 C        -2.341590         1.473184         0.666386
 H        -3.204861         1.011668         3.285617
 H         0.089031         1.999970         2.615140
 H        -0.881839         0.359700         2.659300
 H         0.537573        -0.172740         0.208539
 H         0.825892         2.563230         0.522357
 H        -0.057617         2.309073        -1.126948
 H        -0.780405         4.367867         0.854977
 H        -1.405064         4.169122        -0.790399
 H        -3.401867         3.254054         0.904065
 H        -3.162877         0.841123         0.374440
