19
Iteration:  4342
 O        -3.094992         2.014709         3.067436
 C        -2.246714         1.935673         1.956285
 C        -0.771446         1.370833         2.193950
 C        -0.670779         1.293815         0.527188
 O        -0.274077         0.040479        -0.099788
 C        -0.097432         2.565344        -0.105752
 C        -1.160347         3.680459         0.333081
 C        -2.370668         2.905837         0.836367
 C        -2.189015         1.386508         0.472782
 H        -3.079311         1.176048         3.499233
 H        -0.090402         1.977623         2.844078
 H        -0.897342         0.382189         2.490384
 H         0.585764         0.075408        -0.528216
 H         0.867728         2.930157         0.106112
 H        -0.042033         2.271942        -1.264266
 H        -0.664511         4.079074         1.187491
 H        -1.093070         4.480510        -0.435078
 H        -3.339306         3.236005         0.569135
 H        -2.853048         0.731911        -0.154737
