19
Iteration:   930
 O        -3.098285         1.818542         3.003145
 C        -2.226654         1.980327         1.977757
 C        -0.764725         1.455410         2.000031
 C        -0.738711         1.253591         0.477769
 O        -0.298311        -0.030347         0.195205
 C        -0.175690         2.525122        -0.180584
 C        -1.012264         3.622334         0.381931
 C        -2.344063         2.985248         0.822009
 C        -2.234170         1.587230         0.428924
 H        -2.766674         1.188860         3.647225
 H        -0.142279         2.241222         2.518079
 H        -0.591079         0.525612         2.463799
 H         0.485306        -0.262724        -0.334420
 H         0.887746         2.752853         0.132172
 H        -0.281469         2.631893        -1.312312
 H        -0.415525         4.293766         1.050760
 H        -1.048959         4.390975        -0.401135
 H        -3.336516         3.406368         0.648423
 H        -3.079773         1.183325        -0.113382
