19
Iteration:  2714charge 0 multiplicity 1
 O        -2.947765         1.943762         3.156343
 C        -2.197949         1.935378         2.019567
 C        -0.733547         1.250170         2.093183
 C        -0.686423         1.258160         0.474246
 O        -0.206984         0.052951         0.007162
 C        -0.195749         2.553759        -0.105350
 C        -1.141676         3.681565         0.265571
 C        -2.301922         2.946997         0.898256
 C        -2.279213         1.553394         0.423384
 H        -3.920145         2.002307         2.908406
 H         0.043845         1.759841         2.585102
 H        -0.780054         0.168380         2.391060
 H        -0.851512        -0.267755        -0.679889
 H         0.857994         2.742567         0.082235
 H        -0.296227         2.326803        -1.186576
 H        -0.731054         4.548225         0.809630
 H        -1.694069         4.159215        -0.595533
 H        -3.372438         3.411985         0.937767
 H        -2.905435         0.929494        -0.318594
