19
Iteration:  3080charge 0 multiplicity 1
 O        -3.089538         1.869401         2.925192
 C        -2.071466         2.065737         2.052150
 C        -0.654998         1.494527         2.051013
 C        -0.704257         1.203107         0.520100
 O        -0.213429        -0.069199        -0.032909
 C        -0.166075         2.586343        -0.057441
 C        -1.200695         3.714611         0.337113
 C        -2.387142         2.847335         0.755871
 C        -2.318142         1.428120         0.603464
 H        -3.004018         2.474998         3.685022
 H         0.170800         2.109076         2.387046
 H        -0.762200         0.681676         2.766108
 H        -0.346464        -0.029322        -0.977058
 H         0.879467         2.729460         0.266467
 H        -0.234217         2.383341        -1.101404
 H        -0.738350         4.212634         1.218150
 H        -1.368953         4.438332        -0.471154
 H        -3.328485         3.332794         0.925221
 H        -2.965593         0.656534         0.235666
