19
Iteration:  2202charge 0 multiplicity 1
 O        -3.018657         1.772345         3.112337
 C        -2.244187         2.001611         1.926031
 C        -0.763358         1.553640         2.060437
 C        -0.771552         1.278900         0.476066
 O        -0.202304         0.015170         0.099773
 C        -0.186674         2.514123        -0.302040
 C        -0.997252         3.621013         0.359482
 C        -2.328396         3.018721         0.821772
 C        -2.314215         1.460759         0.513176
 H        -2.406254         1.258463         3.595740
 H        -0.004142         2.258297         2.382346
 H        -0.782116         0.706400         2.724396
 H        -0.935903        -0.507899        -0.344397
 H         0.866769         2.633866        -0.105684
 H        -0.427199         2.329457        -1.376515
 H        -0.477974         3.970221         1.297723
 H        -1.362290         4.508064        -0.175109
 H        -3.173087         3.743972         0.768350
 H        -3.071859         0.991404        -0.055543
