19
Iteration:   311
 O        -3.171245         2.018067         2.914540
 C        -2.160714         1.885963         2.019495
 C        -0.799064         1.384743         2.217485
 C        -0.764039         1.206370         0.571537
 O        -0.127931         0.093679        -0.132195
 C        -0.073576         2.535285        -0.119821
 C        -1.066602         3.708681         0.305636
 C        -2.321080         2.918042         0.871810
 C        -2.278092         1.398696         0.554549
 H        -3.987089         2.113786         2.434579
 H         0.126534         1.908312         2.573198
 H        -0.778103         0.309735         2.805181
 H        -0.265941        -0.722683         0.388432
 H         0.975279         2.873852         0.120277
 H        -0.117412         2.370592        -1.205995
 H        -0.677436         4.060501         1.287811
 H        -1.414408         4.549163        -0.443943
 H        -3.192414         3.555317         0.806343
 H        -2.899137         0.624349         0.025498
