19
Iteration:  4554
 O        -3.045839         1.979208         2.978894
 C        -2.160413         1.943566         1.957528
 C        -0.696493         1.409158         2.048445
 C        -0.667918         1.257314         0.478368
 O        -0.332172         0.054980        -0.027284
 C        -0.156854         2.557957        -0.011183
 C        -1.176660         3.688007         0.359283
 C        -2.371524         2.897954         0.825999
 C        -2.310836         1.422123         0.429250
 H        -2.823910         1.144083         3.506580
 H         0.065605         2.030524         2.589564
 H        -0.560591         0.357098         2.536518
 H         0.515071        -0.218664         0.363798
 H         0.821284         2.621695         0.551716
 H         0.291060         2.419477        -1.115419
 H        -0.613451         4.307156         1.255010
 H        -1.421094         4.459068        -0.381812
 H        -3.294929         3.365462         0.767493
 H        -3.033950         0.740163        -0.000789
