19
Iteration:  2019
 O        -3.242006         1.805783         3.012178
 C        -2.183498         1.929401         2.058020
 C        -0.740821         1.526910         2.194983
 C        -0.701213         1.270909         0.523208
 O        -0.164879         0.109515         0.000580
 C        -0.205401         2.467926        -0.366957
 C        -0.954992         3.653974         0.267815
 C        -2.291265         2.965931         0.948386
 C        -2.267488         1.491755         0.517949
 H        -2.830902         1.575167         3.905315
 H         0.049980         2.300874         2.200034
 H        -0.643486         0.607269         2.674922
 H        -0.711406        -0.636017         0.335013
 H         0.865813         2.704768        -0.483018
 H        -0.618755         2.365915        -1.396871
 H        -0.502690         4.204879         1.102300
 H        -1.315760         4.164763        -0.604391
 H        -3.293842         3.375021         0.817080
 H        -2.931322         0.892861        -0.112242
