19
Iteration:  2595
 O        -3.039440         1.885532         2.865912
 C        -2.031112         1.950414         1.954860
 C        -0.565894         1.506936         2.057880
 C        -0.727965         1.278969         0.501605
 O        -0.403080        -0.067530         0.062243
 C        -0.282353         2.538656        -0.285977
 C        -1.110555         3.691363         0.449361
 C        -2.340648         2.946162         0.952764
 C        -2.293953         1.507937         0.534012
 H        -2.975329         1.066066         3.357296
 H         0.126465         2.311187         2.416044
 H        -0.566794         0.490185         2.505762
 H         0.119142        -0.398486         0.789785
 H         0.774629         2.774489        -0.172800
 H        -0.639372         2.454198        -1.367232
 H        -0.463220         4.069349         1.228580
 H        -1.265298         4.524507        -0.216916
 H        -3.265116         3.578277         0.785737
 H        -3.118871         0.876108         0.203378
