19
Iteration:  3261
 O        -3.018040         1.911887         3.199268
 C        -2.157716         2.004706         1.974497
 C        -0.798984         1.326684         2.104351
 C        -0.657343         1.271859         0.519318
 O        -0.215522         0.057964         0.015969
 C        -0.117640         2.524883        -0.091938
 C        -1.234362         3.658698         0.141695
 C        -2.351844         2.913981         0.823250
 C        -2.240635         1.476813         0.550500
 H        -3.812682         2.259692         2.849427
 H         0.094298         1.751599         2.594711
 H        -0.932579         0.320215         2.397501
 H         0.131788         0.070297        -0.907394
 H         0.880929         2.768446         0.299444
 H         0.020675         2.139433        -1.128097
 H        -0.681553         4.395698         0.740017
 H        -1.545604         4.188473        -0.772299
 H        -3.379375         3.280688         0.820104
 H        -2.911300         1.054367        -0.218766
