19
Iteration:   915charge 0 multiplicity 1
 O        -3.092917         1.920516         3.056804
 C        -2.207801         1.891637         1.884784
 C        -0.783182         1.462674         2.073213
 C        -0.752796         1.304181         0.533161
 O        -0.243629        -0.025234         0.180551
 C        -0.104783         2.510062        -0.252147
 C        -1.022586         3.711255         0.385233
 C        -2.297551         2.994824         0.859055
 C        -2.340034         1.465812         0.397334
 H        -3.083033         0.987987         3.262202
 H         0.072741         1.959335         2.530415
 H        -0.829398         0.420080         2.521543
 H         0.255014         0.207860        -0.653650
 H         0.933464         2.597378        -0.036480
 H        -0.349530         2.257357        -1.252197
 H        -0.628348         4.074435         1.316418
 H        -1.330793         4.546540        -0.270556
 H        -3.228437         3.565773         0.901867
 H        -2.905669         0.855630        -0.315325
