19
Iteration:  2222charge 0 multiplicity 1
 O        -2.990284         1.802816         2.979420
 C        -2.139162         1.981249         1.977473
 C        -0.642218         1.542370         1.956392
 C        -0.782800         1.289035         0.449394
 O        -0.280739        -0.049343         0.267758
 C        -0.304792         2.470186        -0.235254
 C        -1.047800         3.735092         0.431659
 C        -2.369821         2.947229         0.844247
 C        -2.287043         1.551216         0.469292
 H        -2.787643         0.974919         3.454276
 H         0.093890         2.222645         2.252925
 H        -0.502746         0.544686         2.426475
 H        -0.370098        -0.214030        -0.707174
 H         0.763335         2.567831        -0.274926
 H        -0.783717         2.509326        -1.226870
 H        -0.508603         4.071560         1.325584
 H        -0.845936         4.520940        -0.303630
 H        -3.365288         3.433811         0.730419
 H        -3.053879         0.995229         0.021443
