19
Iteration:  4817charge 0 multiplicity 1
 O        -3.096336         1.865384         2.994110
 C        -2.234938         1.929588         1.962475
 C        -0.854636         1.384085         2.100829
 C        -0.746554         1.341916         0.517967
 O        -0.155786         0.078436         0.169268
 C        -0.188629         2.589380        -0.310295
 C        -0.996825         3.627522         0.382414
 C        -2.326917         2.968226         0.903248
 C        -2.227061         1.423997         0.426309
 H        -2.783778         1.035983         3.352987
 H        -0.141362         2.086792         2.560392
 H        -0.716977         0.375380         2.756945
 H        -0.561905        -0.078994        -0.680376
 H         0.873078         2.631726        -0.489400
 H        -0.682237         2.536476        -1.341073
 H        -0.384025         3.856851         1.366013
 H        -1.165444         4.642195        -0.021889
 H        -3.232198         3.570518         0.748994
 H        -2.842942         0.947406        -0.293271
