19
Iteration:  4815charge 0 multiplicity 1
 O        -3.091763         1.858002         2.998124
 C        -2.227023         1.924948         1.952184
 C        -0.846193         1.377024         2.110376
 C        -0.762384         1.339795         0.520889
 O        -0.166924         0.076632         0.183631
 C        -0.193332         2.606712        -0.318354
 C        -0.993812         3.618637         0.390943
 C        -2.326746         2.960198         0.898728
 C        -2.212115         1.440661         0.420686
 H        -2.788642         1.059309         3.356087
 H        -0.203995         2.097824         2.538022
 H        -0.687638         0.459537         2.677395
 H        -0.533142        -0.059202        -0.697467
 H         0.917331         2.666959        -0.461526
 H        -0.630289         2.509646        -1.335318
 H        -0.429838         3.783424         1.307970
 H        -1.196195         4.620815        -0.043880
 H        -3.202934         3.551995         0.683106
 H        -2.944503         1.020968        -0.267464
