19
Iteration:  3444
 O        -3.016067         1.951695         3.097660
 C        -2.158812         1.961644         2.023491
 C        -0.745017         1.345209         1.987504
 C        -0.663300         1.238513         0.486107
 O        -0.121723         0.027385         0.036984
 C        -0.128187         2.547786         0.008336
 C        -1.229819         3.645553         0.217259
 C        -2.381915         2.922017         0.837708
 C        -2.378188         1.432532         0.456692
 H        -3.170629         2.857075         3.373795
 H         0.024064         1.744243         2.657605
 H        -0.878214         0.285769         2.305690
 H        -0.151407        -0.064861        -0.951467
 H         0.690730         2.982877         0.551313
 H         0.337489         2.383451        -0.977767
 H        -0.978368         4.506651         0.847041
 H        -1.530519         4.135433        -0.743556
 H        -3.309008         3.468217         0.995045
 H        -3.179825         0.788909        -0.049209
