19
Iteration:    72charge 0 multiplicity 1
 O        -3.240122         1.943756         2.818721
 C        -2.141036         1.903869         1.955107
 C        -0.685924         1.466116         2.170349
 C        -0.655413         1.301034         0.601341
 O        -0.118422         0.039316         0.050628
 C        -0.178507         2.525533        -0.222328
 C        -1.177814         3.609415         0.231803
 C        -2.364718         2.986152         0.890021
 C        -2.204819         1.424954         0.635083
 H        -2.906897         1.548126         3.616440
 H         0.064116         2.315063         2.699244
 H        -0.536673         0.449440         2.631732
 H        -0.569617        -0.607028         0.603164
 H         0.860898         2.819033        -0.042873
 H        -0.457034         2.242799        -1.231372
 H        -0.662415         4.288263         0.958314
 H        -1.544480         4.208633        -0.643998
 H        -3.338234         3.405484         0.699279
 H        -2.852068         0.879157         0.018843
