19
Iteration:  2838charge 0 multiplicity 1
 O        -3.037310         1.845725         3.076036
 C        -2.090640         2.070040         2.001668
 C        -0.716335         1.453026         2.097195
 C        -0.789275         1.244140         0.487865
 O        -0.253500         0.031356        -0.108942
 C        -0.165953         2.480564        -0.119006
 C        -1.099646         3.655123         0.280583
 C        -2.325747         3.004394         0.864069
 C        -2.368974         1.426237         0.558514
 H        -3.557440         0.949515         2.951507
 H         0.013425         2.084704         2.619386
 H        -0.794274         0.654131         2.767595
 H         0.739497        -0.021535        -0.132441
 H         0.848303         2.683387         0.319071
 H        -0.124522         2.471697        -1.232078
 H        -0.677906         4.372380         1.041146
 H        -1.089295         4.319630        -0.569787
 H        -3.314002         3.426827         0.800274
 H        -3.293733         0.903022         0.270812
