19
Iteration:   742
 O        -3.264034         1.914425         3.006602
 C        -2.236864         1.906345         1.986588
 C        -0.721901         1.445289         2.230387
 C        -0.677097         1.295057         0.490855
 O        -0.299111        -0.033399        -0.053943
 C        -0.126557         2.538092        -0.263553
 C        -1.008030         3.698467         0.501773
 C        -2.223713         2.951929         0.847412
 C        -2.179370         1.412620         0.525312
 H        -4.118739         2.311224         2.672897
 H         0.001857         2.059957         2.848312
 H        -0.620089         0.402873         2.477790
 H         0.469892         0.006520        -0.612856
 H         0.959492         2.640401        -0.109466
 H        -0.380530         2.456440        -1.395637
 H        -0.369448         4.295336         1.146649
 H        -1.127251         4.419561        -0.308698
 H        -3.268928         3.300117         0.565741
 H        -3.037637         0.910201         0.017656
