19
Iteration:  2205
 O        -3.024175         1.765541         3.106403
 C        -2.204076         2.017131         1.926899
 C        -0.740548         1.562137         2.050567
 C        -0.786164         1.264814         0.489681
 O        -0.207127         0.003983         0.121529
 C        -0.201865         2.504026        -0.311070
 C        -0.986390         3.632954         0.390735
 C        -2.350183         3.038973         0.801993
 C        -2.318920         1.467352         0.494245
 H        -2.373306         1.196621         3.587849
 H         0.093670         2.276761         2.417280
 H        -0.766122         0.682306         2.697759
 H        -0.868169        -0.468812        -0.392504
 H         0.900501         2.584627        -0.136193
 H        -0.458047         2.329294        -1.375521
 H        -0.545404         3.958881         1.363302
 H        -1.438766         4.467690        -0.151565
 H        -3.260952         3.664610         0.758009
 H        -3.101696         1.025616        -0.166773
