19
Iteration:  2105charge 0 multiplicity 1
 O        -2.903722         1.881265         3.201513
 C        -2.247497         1.871465         1.939226
 C        -0.803915         1.463156         2.100930
 C        -0.747950         1.289396         0.504968
 O        -0.315998         0.046826        -0.013758
 C        -0.051458         2.419804        -0.090455
 C        -1.155607         3.672372         0.224611
 C        -2.344415         2.997761         0.871445
 C        -2.278343         1.467765         0.452143
 H        -3.811557         2.081676         3.142365
 H        -0.007875         2.089228         2.685080
 H        -0.668687         0.442178         2.435862
 H         0.529434         0.278743        -0.504359
 H         0.911863         2.612685         0.370768
 H         0.000357         2.478370        -1.210058
 H        -0.880072         4.643658         0.733863
 H        -1.384736         3.955724        -0.791483
 H        -3.376785         3.343494         0.746011
 H        -2.825044         0.917211        -0.273075
