19
Iteration:  3041charge 0 multiplicity 1
 O        -3.059766         1.918397         3.130809
 C        -2.168902         1.851631         1.991842
 C        -0.840198         1.301400         2.081441
 C        -0.733428         1.281471         0.517633
 O        -0.092891         0.142005         0.080209
 C        -0.199898         2.539396        -0.220095
 C        -1.109682         3.650104         0.185244
 C        -2.273506         2.859718         0.912634
 C        -2.339122         1.494151         0.518570
 H        -3.357454         2.895270         3.251888
 H        -0.001069         1.894826         2.541153
 H        -0.861397         0.214783         2.432835
 H         0.060592         0.207883        -0.897002
 H         0.876847         2.739123        -0.097891
 H        -0.153821         2.548788        -1.361521
 H        -0.854119         4.385472         0.918969
 H        -1.554283         4.174426        -0.678085
 H        -3.250823         3.238370         1.169400
 H        -3.058439         0.872884        -0.128138
