19
Iteration:  4532
 O        -3.120316         2.035231         2.975448
 C        -2.159723         1.925354         1.979637
 C        -0.760173         1.304824         2.014219
 C        -0.765719         1.227818         0.485882
 O        -0.159735        -0.060894        -0.087572
 C        -0.081698         2.601121        -0.055406
 C        -1.177903         3.722236         0.357561
 C        -2.353568         2.944767         0.909006
 C        -2.320624         1.446530         0.530825
 H        -2.919383         1.221731         3.465555
 H         0.039173         1.951981         2.470131
 H        -0.691725         0.389262         2.729304
 H         0.715499         0.195961         0.272338
 H         1.071148         2.657075         0.188919
 H        -0.049924         2.482974        -1.300566
 H        -0.924509         4.558999         1.232823
 H        -1.473596         4.318978        -0.529544
 H        -3.270866         3.458785         0.913289
 H        -3.167763         0.981211         0.044931
