19
Iteration:  3079charge 0 multiplicity 1
 O        -3.092599         1.874370         2.921223
 C        -2.070599         2.064049         2.043163
 C        -0.650177         1.484170         2.044697
 C        -0.697689         1.194666         0.518333
 O        -0.209270        -0.070761        -0.030948
 C        -0.170850         2.587766        -0.054211
 C        -1.202836         3.718279         0.337054
 C        -2.391139         2.851996         0.763169
 C        -2.323501         1.431500         0.605362
 H        -3.007607         2.517666         3.698554
 H         0.211895         2.087980         2.374268
 H        -0.755847         0.690273         2.754298
 H        -0.319183        -0.043227        -0.973225
 H         0.867458         2.710084         0.304134
 H        -0.271112         2.408566        -1.092257
 H        -0.738568         4.228634         1.213139
 H        -1.363218         4.443550        -0.471465
 H        -3.364814         3.333652         0.946861
 H        -2.926597         0.645922         0.267674
