19
Iteration:  4273
 O        -3.232349         1.629806         2.950829
 C        -2.151407         1.878512         1.973552
 C        -0.668591         1.486216         2.103185
 C        -0.714599         1.372313         0.500722
 O        -0.368802         0.026808         0.103155
 C        -0.139347         2.538171        -0.274029
 C        -0.995490         3.781416         0.257213
 C        -2.274891         2.990468         0.955869
 C        -2.262005         1.502539         0.526847
 H        -2.962758         2.089968         3.725095
 H        -0.149977         2.316200         2.483861
 H        -0.346101         0.459691         2.501496
 H         0.374644        -0.196117         0.725419
 H         1.018037         2.571522        -0.243552
 H        -0.337759         2.350131        -1.355626
 H        -0.438127         4.373078         1.052904
 H        -1.462580         4.536318        -0.455139
 H        -3.266336         3.351837         0.605188
 H        -2.926324         0.915487        -0.063748
