19
Iteration:  3311charge 0 multiplicity 1
 O        -2.996017         1.737095         2.987997
 C        -2.153387         2.005841         1.921807
 C        -0.597809         1.551908         2.029756
 C        -0.746156         1.275927         0.538516
 O        -0.226030        -0.047824         0.190931
 C        -0.250143         2.552404        -0.222467
 C        -1.083710         3.682447         0.331818
 C        -2.395432         2.999441         0.876578
 C        -2.275144         1.496855         0.538395
 H        -3.914419         1.969861         2.737804
 H         0.188064         2.182820         2.411380
 H        -0.549909         0.493942         2.475328
 H        -0.849933        -0.468156        -0.441961
 H         0.788498         2.542037         0.077403
 H        -0.301152         2.279116        -1.257087
 H        -0.723791         4.310326         1.156698
 H        -1.335355         4.366160        -0.496370
 H        -3.399116         3.472055         0.732484
 H        -2.897190         0.920594        -0.058038
