19
Iteration:  1273
 O        -3.011290         1.814295         2.957416
 C        -2.151781         1.898198         1.932490
 C        -0.746490         1.530913         2.075695
 C        -0.741704         1.350942         0.491428
 O        -0.395553        -0.027413         0.184039
 C        -0.044792         2.618726        -0.130096
 C        -1.064146         3.653569         0.365900
 C        -2.338791         2.974275         0.810974
 C        -2.252716         1.460868         0.408724
 H        -2.912700         1.007332         3.573560
 H         0.012259         2.075025         2.744538
 H        -0.732054         0.590444         2.485191
 H        -1.242775        -0.359829        -0.206399
 H         0.961246         2.593119         0.251439
 H        -0.037844         2.377910        -1.221890
 H        -0.560063         4.330299         1.065833
 H        -1.406526         4.252934        -0.473477
 H        -3.205422         3.649382         0.735848
 H        -2.859880         0.924232        -0.315673
