19
Iteration:  4409charge 0 multiplicity 1
 O        -3.136356         1.801854         3.054029
 C        -2.194323         1.994991         1.981514
 C        -0.768805         1.410644         2.129065
 C        -0.680991         1.291929         0.546470
 O        -0.295960         0.053022        -0.007796
 C        -0.145870         2.547658        -0.137598
 C        -1.063192         3.666880         0.272575
 C        -2.289754         3.014948         0.857316
 C        -2.205440         1.476154         0.429374
 H        -2.890429         0.866643         3.389991
 H        -0.038916         1.974969         2.788195
 H        -0.925674         0.428330         2.465291
 H         0.515823        -0.277655         0.417578
 H         0.887036         2.770860        -0.328246
 H        -0.602296         2.424290        -1.252829
 H        -0.588194         4.346701         1.035742
 H        -1.402391         4.383846        -0.491518
 H        -3.353432         3.366109         0.703931
 H        -3.086173         1.081793        -0.050548
