19
Iteration:  2795charge 0 multiplicity 1
 O        -3.099540         1.795269         2.993110
 C        -2.145796         1.807042         1.926934
 C        -0.714427         1.460414         2.145434
 C        -0.730199         1.326362         0.415487
 O        -0.362881         0.027425         0.090408
 C        -0.195643         2.619091        -0.318132
 C        -1.037640         3.755576         0.305105
 C        -2.253638         2.911334         0.901305
 C        -2.246397         1.534384         0.524748
 H        -2.679605         1.618118         3.851200
 H        -0.025445         2.069925         2.780494
 H        -0.558037         0.433986         2.439087
 H        -0.278914        -0.470396         0.906428
 H         0.913663         2.670318        -0.457380
 H        -0.650470         2.433592        -1.322352
 H        -0.538659         4.308300         1.132546
 H        -1.532304         4.352582        -0.426988
 H        -3.063111         3.460187         1.319141
 H        -2.887451         0.869057        -0.017311
