19
Iteration:  2325charge 0 multiplicity 1
 O        -2.947643         2.097200         3.131986
 C        -2.092692         1.837787         1.988898
 C        -0.699902         1.292620         1.991975
 C        -0.793838         1.233053         0.448120
 O        -0.367028        -0.011963        -0.018752
 C        -0.054803         2.717646        -0.025793
 C        -1.281343         3.724414         0.248413
 C        -2.377431         2.867498         0.884607
 C        -2.298417         1.400627         0.427926
 H        -2.716044         1.523888         3.871586
 H         0.160761         1.831640         2.512747
 H        -0.677992         0.300908         2.403051
 H         0.353311        -0.283394         0.627654
 H         1.051095         2.818922         0.293833
 H        -0.044861         2.656101        -1.164327
 H        -0.828677         4.607047         0.831890
 H        -1.476274         3.983953        -0.823357
 H        -3.405038         3.116568         0.938264
 H        -2.788698         1.080708        -0.512045
