19
Iteration:  4017
 O        -3.079832         1.916008         2.970145
 C        -2.112263         1.936729         1.954000
 C        -0.723677         1.217659         2.135034
 C        -0.719559         1.254517         0.580603
 O        -0.227126         0.086680        -0.005028
 C        -0.136625         2.540835        -0.034773
 C        -1.174381         3.696613         0.304181
 C        -2.353537         2.933800         0.755158
 C        -2.289169         1.454271         0.546199
 H        -3.489214         2.787108         3.189005
 H         0.019327         1.722713         2.738627
 H        -0.882201         0.207650         2.514240
 H         0.475066         0.396236        -0.633134
 H         0.890605         2.910728         0.183603
 H        -0.294174         2.304673        -1.065513
 H        -0.683810         4.400126         1.013807
 H        -1.314378         4.405024        -0.568262
 H        -3.372318         3.434602         0.754424
 H        -2.906864         0.845188        -0.088266
