19
Iteration:   674
 O        -3.172106         1.894706         3.066954
 C        -2.206175         1.961746         1.997489
 C        -0.817181         1.284532         2.075305
 C        -0.700237         1.293896         0.496001
 O        -0.213506         0.001052         0.111324
 C        -0.001786         2.508280        -0.091021
 C        -1.064383         3.714474         0.266546
 C        -2.314669         2.966494         0.896076
 C        -2.251495         1.633028         0.348052
 H        -3.188616         0.968177         3.271292
 H        -0.099437         1.665757         2.791311
 H        -0.931606         0.145428         2.250003
 H        -0.623086        -0.257615        -0.752676
 H         0.952702         2.744014         0.424485
 H         0.206746         2.479205        -1.209912
 H        -0.703603         4.527783         0.860134
 H        -1.469824         4.300701        -0.607151
 H        -3.279690         3.479765         0.868656
 H        -2.999582         1.149382        -0.238889
