19
Iteration:   460
 O        -3.108217         1.849296         2.962059
 C        -2.269215         1.951182         1.842345
 C        -0.932886         1.265465         2.112783
 C        -0.745605         1.229000         0.506447
 O        -0.018361         0.092192         0.160700
 C        -0.107927         2.466191        -0.136748
 C        -1.019088         3.695674         0.324008
 C        -2.313002         3.044382         0.853520
 C        -2.408279         1.492416         0.506592
 H        -2.785104         2.619342         3.474805
 H        -0.096404         1.858786         2.612170
 H        -1.110777         0.346118         2.558974
 H         0.222135         0.026372        -0.772873
 H         0.948436         2.600821         0.108767
 H        -0.106466         2.371226        -1.228040
 H        -0.401842         4.192725         1.153579
 H        -1.145749         4.392576        -0.518189
 H        -3.268165         3.554425         0.997588
 H        -3.259831         1.113672        -0.092514
