19
Iteration:  3056charge 0 multiplicity 1
 O        -3.071094         1.964048         2.961294
 C        -2.115990         1.909237         2.029566
 C        -0.627710         1.270177         2.017549
 C        -0.774807         1.267243         0.473433
 O        -0.118433         0.052609         0.093857
 C        -0.212192         2.563418        -0.138149
 C        -1.246448         3.687609         0.312052
 C        -2.355431         2.963732         0.904454
 C        -2.322044         1.369948         0.557537
 H        -3.095679         2.874689         3.160161
 H         0.156923         1.811033         2.584145
 H        -0.713609         0.257733         2.302562
 H         0.075259         0.132484        -0.884663
 H         0.783992         2.779114         0.292021
 H        -0.168824         2.309784        -1.178280
 H        -0.618406         4.345544         0.959004
 H        -1.592938         4.232356        -0.582115
 H        -3.340249         3.543183         0.865751
 H        -3.175701         0.942845         0.091278
