19
Iteration:  1659
 O        -3.126918         1.757564         3.030775
 C        -2.238220         1.987453         1.961778
 C        -0.753941         1.528857         2.129953
 C        -0.712018         1.261836         0.458471
 O        -0.179610        -0.010663         0.119853
 C        -0.179347         2.470190        -0.368697
 C        -0.951833         3.594135         0.377627
 C        -2.340210         3.074883         0.869032
 C        -2.346958         1.609372         0.549021
 H        -3.785053         1.092538         2.893768
 H         0.043606         2.165039         2.478046
 H        -0.927005         0.653180         2.776731
 H         0.761313        -0.038613         0.176613
 H         0.933834         2.415703        -0.376361
 H        -0.445506         2.279661        -1.395947
 H        -0.486514         4.079558         1.256303
 H        -1.170726         4.514900        -0.247885
 H        -3.329410         3.545311         0.676512
 H        -3.000634         0.900660        -0.007409
