19
Iteration:  3724
 O        -3.216263         1.727547         2.973644
 C        -2.131436         1.936669         2.016821
 C        -0.680620         1.615064         2.165006
 C        -0.686147         1.319234         0.607832
 O        -0.207745         0.026935         0.093373
 C        -0.288096         2.513043        -0.343429
 C        -0.968383         3.645453         0.318824
 C        -2.319423         2.919041         0.841059
 C        -2.261728         1.476255         0.508377
 H        -3.261592         2.382120         3.721701
 H        -0.010407         2.402484         2.483456
 H        -0.420908         0.579703         2.682436
 H        -0.524119        -0.200392        -0.780723
 H         0.864655         2.618884        -0.353371
 H        -0.550619         2.260922        -1.401626
 H        -0.295926         4.077233         1.171923
 H        -1.321069         4.509660        -0.274900
 H        -3.265407         3.263492         0.557436
 H        -2.980577         0.808528         0.115088
