19
Iteration:  2577charge 0 multiplicity 1
 O        -3.077225         1.867028         3.119652
 C        -2.211221         1.861816         1.965595
 C        -0.672461         1.596569         2.027383
 C        -0.774012         1.259973         0.440499
 O        -0.370822        -0.022556        -0.011215
 C        -0.152597         2.539585        -0.260524
 C        -1.005021         3.697816         0.351037
 C        -2.295796         2.939526         0.828059
 C        -2.266054         1.450797         0.558053
 H        -3.009893         1.076683         3.641391
 H        -0.052111         2.536898         2.225526
 H        -0.284718         0.771432         2.638882
 H        -0.157408        -0.629288         0.679390
 H         0.954248         2.630416        -0.140847
 H        -0.406826         2.703872        -1.314348
 H        -0.539803         4.233441         1.234614
 H        -1.235901         4.553282        -0.314951
 H        -3.208871         3.458773         1.172612
 H        -2.950623         0.876220        -0.122842
