19
Iteration:   711charge 0 multiplicity 1
 O        -3.026928         1.866556         2.982261
 C        -2.169610         1.960870         1.931935
 C        -0.764482         1.416232         2.113158
 C        -0.836453         1.257107         0.503063
 O        -0.234437         0.046934         0.074766
 C        -0.119420         2.422479        -0.027334
 C        -1.021889         3.683941         0.408898
 C        -2.302035         3.015474         0.792499
 C        -2.357259         1.520218         0.401723
 H        -3.893100         1.490970         2.814161
 H         0.046880         2.046420         2.642554
 H        -0.742767         0.396540         2.428318
 H         0.310896         0.302579        -0.716205
 H         0.888953         2.481964         0.443656
 H         0.126961         2.397445        -1.156889
 H        -0.537047         4.212046         1.281656
 H        -1.180863         4.237054        -0.494070
 H        -3.336868         3.411383         0.755259
 H        -3.226663         0.971052        -0.031088
