19
Iteration:  3152
 O        -3.116996         1.680421         2.818690
 C        -2.087793         2.096952         2.013527
 C        -0.687548         1.497224         1.968038
 C        -0.747922         1.266239         0.515196
 O        -0.207498        -0.053159         0.282956
 C        -0.217074         2.485449        -0.272568
 C        -1.112075         3.686304         0.276993
 C        -2.355658         3.086451         0.954378
 C        -2.281122         1.508014         0.593595
 H        -3.165359         2.168807         3.636386
 H         0.241027         2.045660         2.368376
 H        -0.518429         0.470784         2.216880
 H        -0.080697        -0.151859        -0.677023
 H         0.909116         2.543666        -0.196385
 H        -0.546121         2.368785        -1.373118
 H        -0.587630         4.267956         1.033416
 H        -1.375329         4.332121        -0.571623
 H        -3.371062         3.475424         1.249391
 H        -3.023662         0.795179         0.463935
