19
Iteration:  3001
 O        -2.939910         1.717512         3.081009
 C        -2.142578         2.042448         1.965669
 C        -0.777913         1.493360         2.035407
 C        -0.788627         1.223948         0.515655
 O        -0.173217         0.041137         0.144078
 C        -0.179976         2.534077        -0.186474
 C        -1.128153         3.658290         0.304149
 C        -2.374537         2.967576         0.781371
 C        -2.299692         1.463465         0.513732
 H        -3.831765         1.974195         2.926549
 H         0.036622         2.134501         2.431506
 H        -0.718325         0.633995         2.647037
 H        -0.176383         0.060662        -0.825026
 H         0.884094         2.690988         0.080038
 H        -0.337532         2.402067        -1.237766
 H        -0.669289         4.352274         1.069905
 H        -1.146234         4.373484        -0.553691
 H        -3.299667         3.656538         0.781827
 H        -3.204351         0.853449         0.296174
