19
Iteration:  4082
 O        -3.128666         1.575653         2.813847
 C        -2.139461         2.111181         1.936815
 C        -0.692637         1.516549         2.099182
 C        -0.817355         1.275884         0.495724
 O        -0.221168         0.086381         0.233111
 C        -0.227112         2.469363        -0.222836
 C        -0.971186         3.690947         0.409723
 C        -2.299544         3.086269         0.825927
 C        -2.309853         1.455633         0.541414
 H        -2.926013         1.874338         3.795302
 H         0.109641         2.151513         2.329749
 H        -0.580674         0.569409         2.509249
 H        -0.529300        -0.326811        -0.604283
 H         0.869543         2.493102        -0.131799
 H        -0.450001         2.441355        -1.294434
 H        -0.587639         4.047654         1.392887
 H        -1.075301         4.384604        -0.449951
 H        -3.274760         3.624354         0.795449
 H        -3.053257         0.752996         0.237750
