19
Iteration:  3178charge 0 multiplicity 1
 O        -3.130260         1.816457         2.971989
 C        -2.179782         1.893603         2.014891
 C        -0.696529         1.592536         2.173517
 C        -0.737677         1.259643         0.620901
 O        -0.304272         0.022404         0.004265
 C        -0.216813         2.543144        -0.258915
 C        -1.036076         3.618630         0.279173
 C        -2.312981         2.965499         0.750840
 C        -2.204442         1.385218         0.664434
 H        -2.982742         2.513324         3.661785
 H         0.039210         2.343946         2.480466
 H        -0.454733         0.646572         2.688984
 H         0.035236         0.288411        -0.855943
 H         0.866432         2.721305        -0.122349
 H        -0.391316         2.234586        -1.284427
 H        -0.499305         4.114499         1.128721
 H        -1.379287         4.401516        -0.401547
 H        -3.321325         3.189079         0.573683
 H        -2.933549         0.893879        -0.060515
