19
Iteration:  3380
 O        -3.050985         1.825894         3.040227
 C        -2.181355         2.005412         1.986959
 C        -0.691468         1.469109         2.075473
 C        -0.803205         1.245146         0.451620
 O        -0.098264        -0.015384         0.036758
 C        -0.167467         2.495166        -0.155853
 C        -1.058514         3.686465         0.294182
 C        -2.361654         2.951557         0.851616
 C        -2.433813         1.397083         0.657131
 H        -3.921299         2.377842         2.932713
 H         0.126528         2.167450         2.367176
 H        -0.712324         0.513268         2.524964
 H         0.333499         0.307249        -0.751650
 H         0.872333         2.741973         0.071619
 H        -0.187522         2.475470        -1.224918
 H        -0.518614         4.431039         0.948455
 H        -1.318764         4.392364        -0.569460
 H        -3.187730         3.659239         0.767138
 H        -3.304056         0.830574         0.141419
