19
Iteration:  4587charge 0 multiplicity 1
 O        -3.109081         1.830622         3.109516
 C        -2.214158         1.903034         1.948531
 C        -0.772417         1.467215         2.121297
 C        -0.650096         1.340085         0.561176
 O        -0.333915         0.011616        -0.028881
 C        -0.159443         2.526515        -0.180267
 C        -1.045613         3.758089         0.270405
 C        -2.304347         2.954419         0.852366
 C        -2.215728         1.460211         0.506443
 H        -3.432266         0.885487         3.032761
 H        -0.196693         2.175685         2.767691
 H        -0.655229         0.442288         2.597338
 H         0.583907        -0.239919         0.001224
 H         0.894669         2.728350         0.055798
 H        -0.335940         2.332944        -1.313682
 H        -0.559963         4.454393         1.085819
 H        -1.411522         4.256911        -0.625668
 H        -3.094042         3.538082         0.596051
 H        -2.948023         0.916456        -0.080521
