19
Iteration:   516
 O        -3.099244         1.866973         2.919904
 C        -2.190826         1.930999         1.931296
 C        -0.807505         1.453169         2.241040
 C        -0.722945         1.361817         0.612939
 O        -0.328865         0.005582        -0.032648
 C        -0.059646         2.541876        -0.044335
 C        -1.045586         3.619605         0.342391
 C        -2.260131         2.863211         0.835197
 C        -2.214556         1.449378         0.474473
 H        -3.799007         2.421559         2.618026
 H        -0.067685         2.232808         2.582876
 H        -0.616010         0.509194         2.702414
 H        -0.533810         0.095824        -1.007832
 H         0.919820         2.782744         0.449300
 H         0.009364         2.481884        -1.131844
 H        -0.579927         4.433317         1.011017
 H        -1.428492         4.189770        -0.500116
 H        -3.234759         3.381164         0.773313
 H        -2.783122         0.739445        -0.041105
