19
Iteration:  2457
 O        -2.943820         1.822026         3.080121
 C        -2.164938         2.086341         1.937443
 C        -0.723009         1.570402         2.040033
 C        -0.778505         1.218955         0.550487
 O        -0.248615        -0.005969         0.043938
 C        -0.167071         2.527935        -0.131683
 C        -1.108167         3.618128         0.315491
 C        -2.376982         2.978156         0.820721
 C        -2.327688         1.460542         0.480143
 H        -2.488866         1.017086         3.452239
 H         0.157877         2.114486         2.343775
 H        -0.773407         0.582200         2.447840
 H        -0.826215        -0.424715        -0.645771
 H         0.774045         2.539827         0.416320
 H        -0.097143         2.450449        -1.225661
 H        -0.728614         4.314040         1.151475
 H        -1.200858         4.246750        -0.615917
 H        -3.346514         3.537585         0.744145
 H        -3.211838         0.922137         0.161219
