19
Iteration:   773charge 0 multiplicity 1
 O        -3.216316         1.785391         2.917463
 C        -2.200821         1.958093         1.877415
 C        -0.726057         1.380238         2.110780
 C        -0.699166         1.295955         0.602470
 O        -0.272520         0.078012         0.028353
 C        -0.176025         2.476095        -0.247619
 C        -0.999003         3.649648         0.458050
 C        -2.256757         3.003495         0.870364
 C        -2.280557         1.495137         0.518264
 H        -3.390482         2.660795         3.308133
 H         0.050751         2.037780         2.465658
 H        -0.655856         0.386057         2.554116
 H         0.645272        -0.174858         0.339396
 H         0.879007         2.615816        -0.171254
 H        -0.559646         2.241195        -1.228698
 H        -0.342018         4.165638         1.129509
 H        -1.032037         4.386773        -0.406689
 H        -3.168775         3.686468         0.912042
 H        -3.132735         0.947289         0.046547
