19
Iteration:  2200charge 0 multiplicity 1
 O        -3.017811         1.782156         3.110080
 C        -2.268001         1.988394         1.929584
 C        -0.781299         1.551043         2.062042
 C        -0.759925         1.286690         0.469025
 O        -0.202656         0.022456         0.082876
 C        -0.180978         2.518067        -0.294241
 C        -1.007547         3.616871         0.342306
 C        -2.314294         3.001713         0.837617
 C        -2.310209         1.462456         0.527563
 H        -2.394336         1.251650         3.663701
 H        -0.072509         2.256319         2.372715
 H        -0.771384         0.672817         2.736906
 H        -0.938389        -0.507690        -0.286090
 H         0.867963         2.665249        -0.097363
 H        -0.390254         2.347437        -1.357607
 H        -0.434469         3.984845         1.207585
 H        -1.258925         4.542943        -0.222081
 H        -3.109201         3.745224         0.769318
 H        -3.082336         0.942475         0.002184
