19
Iteration:  1569
 O        -3.126906         1.978453         3.041307
 C        -2.168853         1.873690         2.050326
 C        -0.784734         1.315778         2.131411
 C        -0.679356         1.341941         0.596963
 O        -0.241826         0.129939        -0.102757
 C        -0.076894         2.500968        -0.017325
 C        -1.114035         3.574903         0.042818
 C        -2.299165         2.931404         0.911696
 C        -2.367950         1.534390         0.535725
 H        -3.345146         1.024183         3.345889
 H         0.057241         1.860475         2.675290
 H        -0.943796         0.358674         2.518475
 H         0.712425         0.029477        -0.133018
 H         0.904947         2.646183         0.406949
 H         0.215913         2.239844        -1.060705
 H        -0.616386         4.483441         0.532166
 H        -1.497442         3.985259        -0.909032
 H        -3.152417         3.582916         0.991649
 H        -3.129891         1.065155        -0.041039
