19
Iteration:  1922charge 0 multiplicity 1
 O        -3.142552         2.026924         2.991978
 C        -2.161177         2.004218         2.028838
 C        -0.661359         1.381008         2.161240
 C        -0.740181         1.200817         0.532863
 O        -0.187881         0.077725        -0.150384
 C        -0.204684         2.455917        -0.093742
 C        -1.114399         3.586739         0.251216
 C        -2.316608         2.951038         0.851519
 C        -2.292717         1.465453         0.650945
 H        -3.368288         1.069639         3.262797
 H        -0.014556         2.088161         2.777086
 H        -0.859159         0.357609         2.608174
 H         0.582991         0.480482        -0.595786
 H         0.851926         2.528104         0.330233
 H        -0.154147         2.385562        -1.192580
 H        -0.662747         4.348426         0.956664
 H        -1.377470         4.051335        -0.753031
 H        -3.298694         3.409254         0.849861
 H        -3.100693         0.948718         0.058061
