19
Iteration:   229charge 0 multiplicity 1
 O        -3.233524         1.745815         2.855848
 C        -2.160935         1.980726         1.996152
 C        -0.749332         1.477327         2.101839
 C        -0.670432         1.276600         0.522835
 O        -0.222095         0.016188         0.264413
 C        -0.130998         2.469679        -0.241190
 C        -1.030578         3.690072         0.301423
 C        -2.334312         2.981912         0.830245
 C        -2.232875         1.530322         0.498001
 H        -2.813753         1.868973         3.758238
 H        -0.081994         2.225340         2.593822
 H        -0.782117         0.504052         2.459024
 H        -0.472870        -0.096786        -0.665755
 H         0.882284         2.754249         0.100426
 H        -0.062746         2.480511        -1.363593
 H        -0.552323         4.227736         1.128916
 H        -1.259060         4.350023        -0.507608
 H        -3.369867         3.383492         0.886755
 H        -3.065977         1.101593        -0.060596
