19
Iteration:  3285
 O        -3.033151         1.831958         3.113609
 C        -2.213241         1.905918         1.969348
 C        -0.737304         1.524301         2.131554
 C        -0.760866         1.279175         0.505972
 O        -0.219317         0.067638         0.010689
 C        -0.080055         2.561051        -0.146427
 C        -1.061233         3.622792         0.183880
 C        -2.284882         2.904602         0.888142
 C        -2.369359         1.459789         0.561912
 H        -3.931860         2.082433         2.880052
 H        -0.097020         2.431776         2.322132
 H        -0.394413         0.700739         2.685962
 H        -0.477651        -0.147602        -0.919289
 H         0.943804         2.568466         0.287006
 H         0.062032         2.115395        -1.149199
 H        -0.750466         4.456790         0.799171
 H        -1.512850         4.082934        -0.677174
 H        -3.191089         3.450151         0.782465
 H        -3.100450         0.649659         0.240645
