19
Iteration:  2820
 O        -3.084721         1.793596         3.057359
 C        -2.263444         1.998016         1.995371
 C        -0.690935         1.465210         1.986643
 C        -0.823406         1.268636         0.504655
 O        -0.235009         0.045796        -0.038651
 C        -0.162022         2.475770        -0.207348
 C        -1.038973         3.654576         0.288588
 C        -2.302349         3.012364         0.924782
 C        -2.286090         1.574122         0.591678
 H        -3.050455         0.908879         3.574180
 H         0.126483         2.150682         2.393860
 H        -0.514902         0.434644         2.465171
 H         0.566458        -0.231222         0.468058
 H         0.904682         2.592479         0.060862
 H        -0.231518         2.164114        -1.260191
 H        -0.467887         4.330103         0.919731
 H        -1.596860         4.096009        -0.564730
 H        -3.311122         3.565595         0.980210
 H        -3.088854         1.058342         0.010021
