19
Iteration:  3525charge 0 multiplicity 1
 O        -3.124359         1.660734         2.882845
 C        -2.142599         1.940406         1.972775
 C        -0.612318         1.621162         2.027686
 C        -0.784179         1.269305         0.534060
 O        -0.314979        -0.101228         0.298142
 C        -0.209363         2.639457        -0.358853
 C        -1.008986         3.692813         0.346150
 C        -2.351217         2.959061         0.869310
 C        -2.302622         1.499364         0.540767
 H        -2.945380         2.125969         3.668865
 H         0.177596         2.362858         2.162275
 H        -0.451510         0.688896         2.536184
 H         0.278742        -0.214454        -0.489529
 H         0.824727         2.923551        -0.273058
 H        -0.548283         2.458174        -1.304576
 H        -0.546910         4.112027         1.278829
 H        -1.200849         4.509533        -0.385157
 H        -3.231105         3.641162         1.074349
 H        -2.980583         0.844640         0.019983
