19
Iteration:   796charge 0 multiplicity 1
 O        -3.138686         1.742261         2.943328
 C        -2.185115         1.974560         1.952935
 C        -0.811435         1.451861         2.038655
 C        -0.823465         1.237215         0.454218
 O        -0.232543        -0.009969         0.067634
 C        -0.083872         2.525344        -0.152652
 C        -1.008151         3.716585         0.342532
 C        -2.287590         3.001703         0.824080
 C        -2.315068         1.560599         0.526886
 H        -2.949802         1.891581         3.902076
 H        -0.054308         2.134561         2.479115
 H        -0.836700         0.522061         2.562527
 H         0.254361        -0.331210         0.829560
 H         0.863335         2.625316         0.337817
 H        -0.006914         2.557380        -1.250705
 H        -0.478198         4.188614         1.160559
 H        -0.888331         4.413412        -0.500947
 H        -3.310537         3.427540         0.967532
 H        -3.065295         1.111927        -0.153048
