19
Iteration:  3552charge 0 multiplicity 1
 O        -3.018878         1.622930         2.994340
 C        -2.219177         2.010097         1.943493
 C        -0.719230         1.613377         2.039846
 C        -0.815127         1.286666         0.530288
 O        -0.190622        -0.001388         0.183073
 C        -0.211970         2.441488        -0.239668
 C        -1.027345         3.673757         0.304377
 C        -2.368309         3.018380         0.844656
 C        -2.304567         1.532234         0.551377
 H        -3.182801         2.362249         3.530645
 H         0.120158         2.227818         2.439841
 H        -0.751580         0.547710         2.389554
 H         0.173657        -0.057855        -0.734975
 H         0.845740         2.614661         0.095191
 H        -0.313453         2.177586        -1.376410
 H        -0.571291         4.102615         1.175674
 H        -1.114496         4.383860        -0.508519
 H        -3.226460         3.583175         0.660542
 H        -3.219401         1.068855         0.167209
