19
Iteration:  4067
 O        -3.151144         1.635295         2.869697
 C        -2.171362         1.918823         1.943457
 C        -0.695163         1.586809         1.980535
 C        -0.771541         1.260937         0.522189
 O        -0.152487         0.002230         0.198543
 C        -0.234017         2.462763        -0.165563
 C        -0.963850         3.674185         0.373301
 C        -2.326228         3.024014         0.876250
 C        -2.350238         1.609351         0.536262
 H        -3.189454         2.159238         3.645977
 H         0.111329         2.333299         2.324528
 H        -0.589627         0.692605         2.645439
 H        -0.233693        -0.007360        -0.755010
 H         0.815244         2.410060         0.054930
 H        -0.432100         2.264439        -1.287974
 H        -0.366382         4.205206         1.120169
 H        -1.179256         4.518823        -0.283836
 H        -3.256367         3.600389         0.847685
 H        -3.252474         1.046385         0.162763
