19
Iteration:  4055charge 0 multiplicity 1
 O        -3.192393         1.668137         2.961769
 C        -2.220150         1.922907         1.966550
 C        -0.738418         1.512652         2.100277
 C        -0.692459         1.260911         0.485672
 O        -0.178687        -0.003284         0.150202
 C        -0.117083         2.510571        -0.263413
 C        -1.035736         3.655629         0.345225
 C        -2.286768         3.050005         0.939257
 C        -2.365405         1.524026         0.501290
 H        -3.159956         2.553187         3.486675
 H        -0.077989         2.413569         2.372103
 H        -0.467499         0.551755         2.703532
 H         0.082419        -0.101037        -0.793349
 H         0.970129         2.758459        -0.142991
 H        -0.263078         2.490444        -1.399125
 H        -0.536845         4.152175         1.195261
 H        -1.256674         4.302207        -0.493460
 H        -3.220841         3.567923         0.914992
 H        -3.243614         1.294374        -0.163543
