19
Iteration:  3989
 O        -3.086273         1.981154         3.081705
 C        -2.158312         1.967845         1.982493
 C        -0.779747         1.393904         2.018865
 C        -0.723359         1.183267         0.414888
 O        -0.144967         0.048880        -0.138204
 C        -0.091003         2.489219         0.140964
 C        -1.186823         3.676746         0.305187
 C        -2.361488         2.916492         0.806134
 C        -2.331335         1.370673         0.534334
 H        -3.422947         2.808014         3.331839
 H        -0.095361         2.068128         2.605467
 H        -0.970049         0.342371         2.490872
 H         0.637259         0.418872        -0.558483
 H         0.793917         2.791613         0.747741
 H         0.303489         2.387292        -0.930036
 H        -0.640471         4.329287         0.992201
 H        -1.305325         4.191724        -0.649023
 H        -3.355973         3.199506         0.614031
 H        -3.240430         0.875465         0.184360
