19
Iteration:  1077
 O        -3.064910         1.886685         3.009411
 C        -2.157522         1.888029         1.942925
 C        -0.758036         1.464563         2.077087
 C        -0.760809         1.259847         0.541273
 O        -0.217996         0.067543         0.013503
 C        -0.167907         2.531703        -0.135207
 C        -1.083488         3.652950         0.349153
 C        -2.259164         2.916640         0.847948
 C        -2.221670         1.458440         0.521698
 H        -3.759892         2.592121         2.820005
 H        -0.006616         2.121768         2.423478
 H        -0.708184         0.476781         2.576842
 H        -0.807546        -0.637998        -0.214957
 H         0.873989         2.635154         0.191702
 H        -0.271343         2.397839        -1.236002
 H        -0.723722         4.173924         1.235235
 H        -1.432623         4.401177        -0.354668
 H        -3.229242         3.412767         0.773410
 H        -3.073507         0.968329         0.044336
