19
Iteration:   145
 O        -2.945817         1.986847         3.079441
 C        -2.253035         1.897690         1.876895
 C        -0.757672         1.376564         2.068249
 C        -0.772271         1.225699         0.541108
 O        -0.138682         0.045876         0.140804
 C        -0.154696         2.581151        -0.054587
 C        -1.159341         3.736297         0.263902
 C        -2.322073         2.895689         0.725405
 C        -2.323513         1.420231         0.396240
 H        -3.722904         1.445394         3.080703
 H        -0.067133         1.989417         2.539927
 H        -0.596301         0.396077         2.545309
 H        -0.245051        -0.454473         0.990624
 H         0.816835         2.861051         0.327600
 H        -0.158752         2.490698        -1.127819
 H        -0.791256         4.305738         1.113357
 H        -1.332181         4.438422        -0.543453
 H        -3.322344         3.381584         0.506730
 H        -2.888936         0.904927        -0.401416
