19
Iteration:  2654charge 0 multiplicity 1
 O        -3.006622         1.884969         3.181977
 C        -2.204448         1.970800         2.056542
 C        -0.761156         1.515372         2.062093
 C        -0.788093         1.281380         0.552285
 O        -0.259107         0.065766        -0.142674
 C        -0.087113         2.350221        -0.132530
 C        -1.080306         3.597768         0.251659
 C        -2.337037         2.943647         0.945531
 C        -2.315439         1.516489         0.477294
 H        -3.820396         1.412117         3.052015
 H        -0.085734         2.363643         2.497302
 H        -0.534790         0.649453         2.704549
 H         0.362007         0.291172        -0.842806
 H         0.974159         2.538414         0.152264
 H        -0.122752         2.362019        -1.216897
 H        -0.472117         4.406434         0.748028
 H        -1.558489         4.024449        -0.664047
 H        -3.201601         3.526211         0.921504
 H        -2.985515         0.981622        -0.162950
