19
Iteration:  3191charge 0 multiplicity 1
 O        -3.133120         1.883548         3.127667
 C        -2.247052         1.938521         1.978030
 C        -0.782912         1.585463         2.150144
 C        -0.659848         1.292043         0.514492
 O        -0.270952         0.045938        -0.049928
 C        -0.119659         2.441818        -0.237241
 C        -1.081303         3.680520         0.278750
 C        -2.317438         2.806201         0.867984
 C        -2.218577         1.355549         0.550553
 H        -2.969258         2.736612         3.541306
 H        -0.271536         2.407141         2.586378
 H        -0.641306         0.664090         2.811516
 H         0.178187         0.272672        -0.903264
 H         0.935553         2.602791        -0.051979
 H        -0.358277         2.418919        -1.267869
 H        -0.574023         4.268080         1.083430
 H        -1.210719         4.382056        -0.582187
 H        -3.204494         3.408552         0.694384
 H        -2.882698         0.632317        -0.020136
