19
Iteration:  3881
 O        -3.122334         1.651686         3.003121
 C        -2.249671         1.863968         1.924793
 C        -0.800252         1.555331         2.108844
 C        -0.694628         1.343702         0.566158
 O        -0.231195         0.028033         0.112972
 C        -0.183137         2.484218        -0.311566
 C        -0.979949         3.716493         0.399478
 C        -2.258904         2.994670         0.783221
 C        -2.262262         1.557729         0.469180
 H        -3.016595         2.207706         3.734801
 H        -0.187986         2.299421         2.508191
 H        -0.483936         0.641528         2.649176
 H        -0.670602        -0.673904         0.621757
 H         0.889869         2.632532        -0.452030
 H        -0.631431         2.325120        -1.318750
 H        -0.467144         4.277178         1.225298
 H        -1.198144         4.479638        -0.406169
 H        -3.095249         3.651960         0.754469
 H        -2.915653         0.959662        -0.096395
