19
Iteration:  1087charge 0 multiplicity 1
 O        -3.130081         1.828050         2.928738
 C        -2.115966         1.933877         2.000785
 C        -0.636560         1.461378         2.141373
 C        -0.756832         1.253968         0.462576
 O        -0.227472         0.080414         0.055823
 C        -0.184059         2.462093        -0.221209
 C        -1.118019         3.688080         0.354769
 C        -2.265508         2.929042         0.930281
 C        -2.294445         1.494840         0.545954
 H        -3.684123         2.695413         2.842304
 H        -0.040174         2.032786         2.806953
 H        -0.718372         0.521709         2.658680
 H        -0.864654        -0.559443        -0.268196
 H         0.819629         2.710708         0.104119
 H         0.011115         2.491907        -1.311042
 H        -0.437537         4.240155         1.001060
 H        -1.282964         4.225467        -0.537422
 H        -3.285978         3.315540         0.952210
 H        -2.914058         0.985033        -0.210470
