19
Iteration:  2593charge 0 multiplicity 1
 O        -3.042268         1.885908         2.879555
 C        -2.029140         1.923995         1.968025
 C        -0.582005         1.526934         2.058365
 C        -0.730110         1.288130         0.496010
 O        -0.401465        -0.082590         0.047847
 C        -0.274522         2.551924        -0.291573
 C        -1.093546         3.708250         0.457994
 C        -2.340313         2.949403         0.934576
 C        -2.302802         1.502595         0.530186
 H        -2.933356         1.094481         3.363596
 H         0.042483         2.301229         2.384646
 H        -0.505747         0.531188         2.556669
 H         0.066534        -0.383032         0.823765
 H         0.791340         2.726076        -0.164489
 H        -0.579132         2.353459        -1.349222
 H        -0.474269         4.069803         1.263844
 H        -1.293318         4.526680        -0.248385
 H        -3.265472         3.517029         0.803634
 H        -3.104087         0.875096         0.237668
