19
Iteration:  3415charge 0 multiplicity 1
 O        -2.968350         1.968026         3.075421
 C        -2.163733         1.927060         2.030595
 C        -0.754098         1.294999         2.105564
 C        -0.725257         1.244920         0.581243
 O        -0.292438         0.092590         0.003265
 C        -0.103595         2.618872        -0.030855
 C        -1.187600         3.669122         0.233535
 C        -2.343818         2.876587         0.812018
 C        -2.265074         1.333212         0.444069
 H        -3.396978         2.922238         3.169800
 H        -0.072445         1.822294         2.836472
 H        -0.737244         0.309106         2.467684
 H         0.126678         0.302867        -0.823438
 H         0.909293         3.047566         0.184853
 H        -0.152013         2.359106        -1.087973
 H        -1.040955         4.550802         0.900162
 H        -1.497702         3.876748        -0.813779
 H        -3.322385         3.316418         0.602789
 H        -2.702367         0.817360        -0.435366
