19
Iteration:  3771charge 0 multiplicity 1
 O        -3.009119         1.846382         3.035234
 C        -2.091508         1.971118         1.962460
 C        -0.750909         1.301540         2.087035
 C        -0.770394         1.243272         0.476409
 O        -0.129702         0.059158         0.015664
 C        -0.182656         2.563706        -0.008503
 C        -1.211351         3.685131         0.189561
 C        -2.371463         2.963265         0.778471
 C        -2.287733         1.519760         0.480313
 H        -3.240741         2.724886         3.507962
 H         0.137963         1.883807         2.476807
 H        -0.829401         0.373746         2.782566
 H        -0.495181        -0.745891         0.471555
 H         0.774653         2.757236         0.508783
 H         0.088618         2.417187        -1.058160
 H        -0.993269         4.403349         1.030008
 H        -1.289459         4.253335        -0.776256
 H        -3.401704         3.388038         1.051354
 H        -3.109850         0.957888        -0.044898
