19
Iteration:   977
 O        -3.161717         1.728652         2.931171
 C        -2.191274         1.916190         2.007372
 C        -0.673532         1.481998         2.145810
 C        -0.707030         1.354067         0.567710
 O        -0.401241         0.046366        -0.046907
 C        -0.080665         2.447580        -0.136651
 C        -1.106087         3.686965         0.264330
 C        -2.239349         2.979899         0.829712
 C        -2.208221         1.518671         0.600755
 H        -3.414776         2.517464         3.378185
 H         0.070199         2.116717         2.634156
 H        -0.665989         0.417916         2.538590
 H         0.310761        -0.347428         0.516754
 H         1.026964         2.605407        -0.098020
 H        -0.316740         2.183557        -1.229375
 H        -0.632758         4.469190         0.911111
 H        -1.425755         4.332034        -0.548734
 H        -3.134135         3.608149         0.740837
 H        -2.923346         0.943018         0.018042
