19
Iteration:  3413
 O        -2.980386         1.966437         3.079685
 C        -2.164121         1.949509         2.012912
 C        -0.745459         1.307056         2.108055
 C        -0.714303         1.264953         0.575885
 O        -0.289923         0.084151        -0.002231
 C        -0.099610         2.590531        -0.029165
 C        -1.189276         3.673130         0.238841
 C        -2.352651         2.844550         0.812829
 C        -2.256378         1.350637         0.455030
 H        -3.441778         2.853777         3.180011
 H         0.001605         1.791895         2.788405
 H        -0.797240         0.315209         2.453557
 H         0.140975         0.355406        -0.811497
 H         0.840035         3.048074         0.172991
 H        -0.199790         2.351690        -1.054294
 H        -0.976341         4.523839         0.921669
 H        -1.523773         3.866459        -0.812160
 H        -3.283749         3.371985         0.651161
 H        -2.749659         0.819544        -0.447850
