19
Iteration:  2644charge 0 multiplicity 1
 O        -3.055455         1.866243         3.212137
 C        -2.198398         1.897656         1.986179
 C        -0.788569         1.519246         2.191829
 C        -0.767662         1.271758         0.465649
 O        -0.265836         0.039502        -0.100009
 C        -0.159638         2.480292        -0.281087
 C        -1.025337         3.591953         0.245888
 C        -2.256153         2.984650         0.939245
 C        -2.307991         1.478088         0.573767
 H        -3.779523         1.207134         3.008794
 H        -0.084835         2.364757         2.453699
 H        -0.788242         0.584627         2.776973
 H         0.448687         0.445225        -0.651085
 H         0.899039         2.574574         0.074092
 H        -0.187897         2.136346        -1.317007
 H        -0.467300         4.444949         0.738999
 H        -1.346143         4.105147        -0.713771
 H        -3.086177         3.618370         0.927267
 H        -3.003126         1.216987        -0.175822
