19
Iteration:  2810
 O        -3.137059         1.792803         3.050508
 C        -2.169397         1.853768         2.017427
 C        -0.671664         1.414061         2.049436
 C        -0.745630         1.339368         0.501976
 O        -0.288681         0.060047         0.034578
 C        -0.191584         2.510246        -0.304294
 C        -1.062045         3.665271         0.247856
 C        -2.259573         3.026938         0.976554
 C        -2.334857         1.542794         0.490755
 H        -2.771581         1.178147         3.782109
 H         0.001645         2.207401         2.471864
 H        -0.500476         0.413395         2.589566
 H         0.285824        -0.369067         0.724566
 H         0.832161         2.734644        -0.006583
 H        -0.227022         2.359748        -1.388116
 H        -0.456847         4.326694         0.883190
 H        -1.298171         4.452489        -0.505226
 H        -3.280430         3.525255         0.876692
 H        -3.144877         1.174184        -0.187426
