19
Iteration:  1284charge 0 multiplicity 1
 O        -3.052506         1.816928         2.982952
 C        -2.182934         1.948631         1.907948
 C        -0.754653         1.490930         2.082348
 C        -0.672236         1.328853         0.507669
 O        -0.383531        -0.049061         0.186915
 C        -0.082075         2.498082        -0.214516
 C        -1.053347         3.738147         0.350295
 C        -2.371433         2.934204         0.815162
 C        -2.181847         1.564193         0.478868
 H        -2.886902         0.861229         3.294975
 H        -0.098881         2.321296         2.514135
 H        -0.651478         0.531971         2.421324
 H        -1.167115        -0.352959        -0.364505
 H         0.907233         2.693781         0.211417
 H         0.070605         2.545814        -1.320514
 H        -0.704603         4.140227         1.315745
 H        -1.142223         4.581570        -0.317889
 H        -3.435176         3.224261         0.839009
 H        -2.911061         1.010185        -0.079925
