19
Iteration:  4188charge 0 multiplicity 1
 O        -2.973127         1.960141         3.155322
 C        -2.219508         1.835745         1.898614
 C        -0.876651         1.281930         2.131603
 C        -0.714824         1.242265         0.531761
 O        -0.215661         0.111021        -0.033733
 C        -0.130021         2.570588        -0.070652
 C        -1.110615         3.685484         0.288432
 C        -2.328217         2.936549         0.842923
 C        -2.258443         1.416254         0.405434
 H        -3.757289         2.579551         2.938670
 H        -0.233317         1.865461         2.895390
 H        -1.068455         0.315211         2.602563
 H         0.520853         0.253327        -0.652812
 H         0.788359         2.836784         0.348369
 H         0.001516         2.321280        -1.170800
 H        -0.708781         4.371651         0.987897
 H        -1.414419         4.305700        -0.576161
 H        -3.298098         3.464211         1.032136
 H        -2.726093         0.795771        -0.320825
