19
Iteration:  1744
 O        -2.963841         2.000658         3.052711
 C        -2.161104         1.965394         1.868398
 C        -0.800611         1.453907         2.060531
 C        -0.782868         1.244078         0.491921
 O        -0.251366         0.024891        -0.035696
 C        -0.161524         2.596689         0.112529
 C        -1.074821         3.654008         0.307444
 C        -2.354101         2.892976         0.683784
 C        -2.370425         1.377600         0.487289
 H        -2.831803         1.115997         3.549450
 H         0.045462         2.127274         2.530706
 H        -0.807595         0.525831         2.586773
 H         0.690402        -0.157544         0.252893
 H         0.760641         2.570621         0.668640
 H         0.097357         2.380490        -0.969546
 H        -0.857695         4.296444         1.192378
 H        -1.370657         4.302579        -0.533061
 H        -3.343812         3.397713         0.699571
 H        -3.058221         0.701621        -0.040167
