19
Iteration:   689
 O        -3.019777         1.834267         3.091704
 C        -2.239042         1.969879         1.950864
 C        -0.930890         1.318604         1.977343
 C        -0.775628         1.276242         0.510898
 O        -0.165462        -0.060028         0.138141
 C        -0.020579         2.592841        -0.006517
 C        -1.040116         3.728941         0.279917
 C        -2.285095         3.083545         0.814820
 C        -2.365474         1.536633         0.428128
 H        -3.528319         0.994324         2.917591
 H        -0.047287         1.877110         2.455954
 H        -1.041752         0.330752         2.402332
 H        -0.148411        -0.108989        -0.819799
 H         0.987826         2.707302         0.433512
 H         0.163762         2.385710        -1.102256
 H        -0.497749         4.354277         1.030768
 H        -1.202529         4.223526        -0.655854
 H        -3.272869         3.611126         0.774081
 H        -3.143737         1.037647        -0.204439
