19
Iteration:  2884
 O        -3.045984         1.966253         3.101002
 C        -2.158251         1.834206         2.015247
 C        -0.765836         1.346549         2.088391
 C        -0.725108         1.248594         0.503812
 O        -0.205816         0.006195         0.032359
 C        -0.135256         2.641060        -0.172890
 C        -1.165339         3.674719         0.326832
 C        -2.333765         2.859177         0.880253
 C        -2.250353         1.439179         0.408115
 H        -3.292690         2.912651         3.192255
 H         0.099003         1.844491         2.561870
 H        -0.674014         0.334383         2.490945
 H        -0.356520         0.060551        -0.909781
 H         0.872365         2.847723         0.282428
 H        -0.042765         2.644176        -1.294023
 H        -0.657724         4.375168         1.009879
 H        -1.659413         4.387792        -0.326981
 H        -3.353710         3.380460         0.828498
 H        -3.073715         0.998699        -0.195447
