19
Iteration:  2811
 O        -3.131369         1.790897         3.050655
 C        -2.184499         1.867350         2.016444
 C        -0.667305         1.414172         2.041422
 C        -0.756161         1.340164         0.506051
 O        -0.282330         0.058290         0.030506
 C        -0.187931         2.506503        -0.300425
 C        -1.060183         3.659188         0.252244
 C        -2.262127         3.028987         0.973077
 C        -2.331455         1.545158         0.495767
 H        -2.807074         1.161954         3.787165
 H        -0.000695         2.191227         2.464968
 H        -0.488768         0.422027         2.591100
 H         0.309981        -0.372348         0.691215
 H         0.820726         2.736042         0.008232
 H        -0.221743         2.335133        -1.378747
 H        -0.456674         4.340751         0.868364
 H        -1.312899         4.446921        -0.507890
 H        -3.277755         3.513043         0.885638
 H        -3.138340         1.178148        -0.165144
