19
Iteration:   543charge 0 multiplicity 1
 O        -3.236795         1.776477         2.970781
 C        -2.209047         1.964867         2.000399
 C        -0.714425         1.437919         2.098449
 C        -0.699307         1.316448         0.635412
 O        -0.211952        -0.036667         0.009128
 C        -0.089862         2.485814        -0.094416
 C        -0.992907         3.697862         0.264816
 C        -2.260312         3.032608         0.804631
 C        -2.290240         1.524932         0.611044
 H        -4.070573         1.872737         2.505350
 H         0.133593         2.013409         2.474673
 H        -0.700625         0.363123         2.482878
 H        -0.368985         0.085064        -0.966672
 H         0.903129         2.766694         0.320721
 H        -0.080610         2.316096        -1.222692
 H        -0.507744         4.242049         1.052690
 H        -1.294805         4.364749        -0.601637
 H        -3.228007         3.522937         0.708778
 H        -3.108749         0.963394         0.097134
