19
Iteration:  2998
 O        -2.940189         1.725925         3.054755
 C        -2.103753         2.027044         1.943168
 C        -0.755802         1.504676         2.037951
 C        -0.780626         1.234617         0.505565
 O        -0.199580         0.039182         0.160893
 C        -0.172200         2.551742        -0.168518
 C        -1.134270         3.658151         0.326431
 C        -2.384578         2.962526         0.790007
 C        -2.331641         1.459436         0.511028
 H        -3.923992         1.932856         2.854839
 H         0.057283         2.192619         2.371958
 H        -0.651588         0.585030         2.661169
 H        -0.142681        -0.044357        -0.797631
 H         0.903974         2.646921         0.025697
 H        -0.310240         2.419070        -1.261093
 H        -0.631643         4.303707         1.033751
 H        -1.272411         4.395758        -0.487426
 H        -3.199837         3.672060         0.771912
 H        -3.209657         0.746890         0.401083
