19
Iteration:  2377charge 0 multiplicity 1
 O        -3.121377         1.879274         3.086657
 C        -2.091050         2.080504         2.042168
 C        -0.649153         1.489938         2.082565
 C        -0.790373         1.218422         0.536248
 O        -0.231724         0.059276        -0.074284
 C        -0.288492         2.476287        -0.245209
 C        -1.078857         3.632461         0.340384
 C        -2.281871         2.932907         0.753834
 C        -2.340713         1.473923         0.684446
 H        -3.301548         0.890088         2.968462
 H         0.274627         2.053742         2.266588
 H        -0.599830         0.570718         2.657877
 H         0.688250         0.205360        -0.411650
 H         0.783977         2.411264        -0.202777
 H        -0.392179         2.289995        -1.334222
 H        -0.405432         4.045902         1.143285
 H        -1.248328         4.466328        -0.326450
 H        -3.216591         3.417499         0.571516
 H        -3.273810         0.863671         0.503516
