19
Iteration:  2172
 O        -3.155406         1.959413         3.068678
 C        -2.187288         1.919631         2.003048
 C        -0.609068         1.363251         2.118141
 C        -0.790322         1.278786         0.501411
 O        -0.248420         0.134393        -0.100967
 C        -0.130397         2.487623        -0.166867
 C        -1.100242         3.659547         0.254629
 C        -2.322518         2.906453         0.900994
 C        -2.284108         1.465934         0.527479
 H        -2.780927         1.416484         3.846617
 H         0.285203         2.034687         2.465638
 H        -0.644753         0.414691         2.660779
 H        -0.427199        -0.642094         0.416759
 H         0.946868         2.495235         0.113123
 H        -0.152616         2.271890        -1.263830
 H        -0.593013         4.499582         0.813633
 H        -1.544607         4.248658        -0.583948
 H        -3.160308         3.612554         0.955172
 H        -2.965033         1.058330        -0.216309
