19
Iteration:  1876charge 0 multiplicity 1
 O        -3.047739         1.843470         2.989767
 C        -2.194251         1.845892         1.964138
 C        -0.723580         1.458554         2.094911
 C        -0.786019         1.353482         0.473198
 O        -0.291642         0.041644         0.261458
 C        -0.163274         2.543277        -0.281171
 C        -1.019807         3.688865         0.340458
 C        -2.318346         2.958732         0.897890
 C        -2.263405         1.508026         0.421442
 H        -3.057659         1.002087         3.466837
 H         0.121291         2.182972         2.424398
 H        -0.612613         0.437968         2.382234
 H        -0.543254        -0.446301        -0.586097
 H         0.863988         2.877314        -0.099190
 H        -0.289540         2.314814        -1.370962
 H        -0.494022         4.167399         1.198935
 H        -1.243521         4.450474        -0.410906
 H        -3.345180         3.309489         0.790923
 H        -2.925737         1.142317        -0.372376
