19
Iteration:  2310
 O        -2.948883         2.045134         3.107938
 C        -2.140891         1.987462         1.985262
 C        -0.678773         1.313976         1.993999
 C        -0.727754         1.268592         0.498867
 O        -0.321758        -0.002279        -0.108026
 C        -0.155063         2.592631        -0.020939
 C        -1.221115         3.695355         0.213698
 C        -2.386331         2.897266         0.847829
 C        -2.284381         1.414243         0.529327
 H        -2.791043         1.234590         3.579727
 H         0.201528         1.742815         2.470852
 H        -0.861978         0.295817         2.379076
 H         0.384616        -0.410117         0.434399
 H         0.667638         2.891105         0.629035
 H         0.299792         2.545992        -1.021113
 H        -0.974331         4.534799         0.859594
 H        -1.638636         4.157745        -0.678220
 H        -3.333044         3.489452         0.900094
 H        -3.074946         0.684374         0.224922
