19
Iteration:  4326charge 0 multiplicity 1
 O        -3.130838         1.851749         3.046004
 C        -2.162326         1.972573         1.943325
 C        -0.807061         1.412244         2.104906
 C        -0.698314         1.287581         0.592280
 O        -0.290563         0.039041        -0.018515
 C        -0.152604         2.586567        -0.124121
 C        -1.022724         3.688881         0.331044
 C        -2.340344         2.898455         0.692759
 C        -2.271265         1.453686         0.556184
 H        -2.693115         1.293091         3.665007
 H         0.016250         1.899245         2.618689
 H        -0.840960         0.308005         2.482088
 H         0.648418         0.198280        -0.302370
 H         0.999846         2.642294         0.053649
 H        -0.251124         2.515041        -1.189112
 H        -0.737667         4.438783         1.141724
 H        -1.372687         4.418026        -0.434019
 H        -3.267293         3.516620         0.739148
 H        -2.893320         0.796413        -0.010093
