19
Iteration:  1546
 O        -3.125146         1.968250         3.022372
 C        -2.223093         1.943718         1.991597
 C        -0.836544         1.321139         2.145712
 C        -0.766188         1.238139         0.492037
 O        -0.216102         0.020277        -0.041702
 C        -0.068712         2.511871        -0.054767
 C        -1.142385         3.704811         0.188903
 C        -2.260526         2.991188         0.955058
 C        -2.256497         1.479979         0.495371
 H        -2.644269         1.420143         3.592451
 H        -0.025796         2.025443         2.574939
 H        -0.794172         0.371258         2.536569
 H         0.733984         0.003511        -0.330913
 H         0.947273         2.484525         0.327868
 H         0.110763         2.533811        -1.165298
 H        -0.922573         4.705421         0.677336
 H        -1.593642         3.991200        -0.771350
 H        -3.287585         3.266848         0.760078
 H        -3.004595         0.972724        -0.094379
