19
Iteration:  4427
 O        -3.089500         1.763676         2.991230
 C        -2.199494         1.815528         1.962328
 C        -0.789152         1.480780         2.157295
 C        -0.682481         1.330334         0.570990
 O        -0.395336         0.046211         0.054141
 C        -0.153133         2.534644        -0.286782
 C        -1.008302         3.779576         0.310044
 C        -2.316739         2.978582         0.845890
 C        -2.239109         1.551179         0.504305
 H        -2.877875         0.831470         3.381263
 H        -0.077128         2.184904         2.536888
 H        -0.563655         0.469955         2.605192
 H         0.445189        -0.172928         0.466334
 H         0.839311         2.668143         0.080973
 H        -0.304650         2.232715        -1.242051
 H        -0.527562         4.268349         1.099480
 H        -1.337698         4.423839        -0.555011
 H        -3.212846         3.500980         0.785830
 H        -2.556991         0.869236        -0.293109
