19
Iteration:   560charge 0 multiplicity 1
 O        -3.135781         1.778727         3.003759
 C        -2.219684         2.000658         1.973426
 C        -0.842049         1.362056         2.107477
 C        -0.797859         1.196967         0.405913
 O        -0.139787        -0.008105         0.181369
 C        -0.097706         2.527721        -0.198398
 C        -0.998117         3.740688         0.318568
 C        -2.259994         3.033245         0.923366
 C        -2.290927         1.576991         0.491675
 H        -3.920620         1.555276         2.524593
 H        -0.084308         1.924571         2.714744
 H        -0.998264         0.370595         2.581370
 H        -0.055010        -0.224030        -0.787278
 H         0.976189         2.549994         0.108955
 H        -0.128329         2.530506        -1.278124
 H        -0.462476         4.494370         0.973189
 H        -1.184829         4.346341        -0.561924
 H        -3.137118         3.698403         0.873148
 H        -3.095719         1.038745        -0.000296
