19
Iteration:  3907charge 0 multiplicity 1
 O        -3.225435         1.656589         2.834649
 C        -2.161028         1.910977         1.993480
 C        -0.686877         1.648666         2.069871
 C        -0.779839         1.314032         0.475252
 O        -0.265244         0.042002         0.061458
 C        -0.193016         2.421721        -0.311526
 C        -0.981052         3.645534         0.402277
 C        -2.300583         3.024196         0.913058
 C        -2.264680         1.517755         0.645807
 H        -3.204523         1.999502         3.718557
 H         0.064014         2.401584         2.486933
 H        -0.329473         0.830424         2.647933
 H         0.241535        -0.342731         0.789967
 H         0.865245         2.595342        -0.075964
 H        -0.282278         2.337871        -1.388468
 H        -0.329559         4.036835         1.165410
 H        -1.086505         4.427181        -0.348999
 H        -3.236662         3.614695         0.766971
 H        -3.037201         0.996526        -0.006565
