19
Iteration:  1067
 O        -3.019727         1.914864         3.091846
 C        -2.240161         1.957199         1.951304
 C        -0.773344         1.418611         2.065121
 C        -0.696691         1.245874         0.533369
 O        -0.155617         0.037625        -0.027600
 C        -0.118071         2.559353        -0.086486
 C        -1.016475         3.684757         0.389731
 C        -2.395179         2.914567         0.789572
 C        -2.329237         1.387297         0.461616
 H        -3.802795         2.483783         2.907542
 H        -0.077211         2.153483         2.387539
 H        -0.568474         0.394559         2.535114
 H        -1.023745        -0.355037         0.053486
 H         0.989534         2.667506         0.007543
 H        -0.310155         2.349979        -1.164497
 H        -0.569667         4.307290         1.165152
 H        -1.185023         4.434952        -0.432597
 H        -3.337657         3.471688         0.700602
 H        -3.047586         0.715022        -0.072179
