19
Iteration:  4849charge 0 multiplicity 1
 O        -3.184707         1.956596         2.928272
 C        -2.170142         1.963641         2.038674
 C        -0.685485         1.350930         2.085334
 C        -0.748771         1.233672         0.464849
 O        -0.056528         0.079035         0.002054
 C        -0.172485         2.542001        -0.133888
 C        -1.111825         3.628589         0.367731
 C        -2.296660         2.963626         0.913683
 C        -2.353719         1.485256         0.541980
 H        -3.357740         1.044789         3.270795
 H         0.065389         2.073525         2.213842
 H        -0.581588         0.404396         2.700160
 H        -0.568895        -0.392370        -0.690684
 H         0.887041         2.638131         0.129798
 H        -0.326513         2.545425        -1.245000
 H        -0.608760         4.155072         1.221759
 H        -1.284369         4.509306        -0.278059
 H        -3.298078         3.372578         0.761685
 H        -3.171659         0.951969         0.054116
