19
Iteration:  1138charge 0 multiplicity 1
 O        -3.103622         1.733292         2.936044
 C        -2.234077         1.953417         1.931340
 C        -0.776983         1.546014         2.152534
 C        -0.793367         1.337364         0.602497
 O        -0.246780         0.041302         0.040231
 C        -0.073816         2.495102        -0.199013
 C        -1.034339         3.619085         0.250992
 C        -2.308893         2.994620         0.872952
 C        -2.282535         1.571870         0.499554
 H        -2.497572         1.436334         3.655472
 H         0.090880         2.207227         2.616766
 H        -0.738921         0.544345         2.530159
 H        -0.571527        -0.727936         0.492551
 H         1.014315         2.464852        -0.117600
 H        -0.274329         2.332766        -1.276071
 H        -0.516544         4.156358         1.088984
 H        -1.113141         4.371982        -0.560414
 H        -3.248986         3.525690         0.858527
 H        -3.074490         0.967004         0.116732
