19
Iteration:  1401
 O        -3.076024         2.010094         3.025857
 C        -2.241748         1.895247         1.967270
 C        -0.729782         1.488215         2.034209
 C        -0.770407         1.249284         0.491520
 O        -0.412666         0.045589        -0.035815
 C         0.023634         2.598042        -0.008993
 C        -1.120775         3.635112         0.307842
 C        -2.300497         2.856371         0.853353
 C        -2.253687         1.398620         0.442323
 H        -2.935113         1.221667         3.585027
 H         0.055213         2.221716         2.239017
 H        -0.595129         0.553283         2.632180
 H         0.478048        -0.215686         0.201720
 H         0.933140         2.510372         0.591692
 H         0.365887         2.795804        -1.045972
 H        -0.717518         4.371491         1.051830
 H        -1.270623         4.188511        -0.628440
 H        -3.350395         3.145106         0.731214
 H        -3.018419         0.750232         0.106325
