19
Iteration:  1778charge 0 multiplicity 1
 O        -3.103945         2.080757         3.082816
 C        -2.166267         1.916233         2.027507
 C        -0.841071         1.249692         2.053725
 C        -0.713154         1.266901         0.500006
 O        -0.126017         0.058777        -0.030869
 C        -0.174280         2.590418        -0.060364
 C        -1.154559         3.667262         0.190662
 C        -2.268880         2.916488         0.907100
 C        -2.266088         1.465618         0.444770
 H        -3.276113         1.201173         3.445431
 H         0.006882         1.609010         2.751145
 H        -1.133760         0.250142         2.317669
 H         0.415202        -0.447088         0.643591
 H         0.878114         2.709933         0.206141
 H        -0.171406         2.556664        -1.169206
 H        -0.859464         4.594856         0.724086
 H        -1.632903         4.041145        -0.745105
 H        -3.243827         3.387087         0.805794
 H        -2.868101         0.883857        -0.210208
