19
Iteration:  4743
 O        -3.131970         1.900262         3.047099
 C        -2.179849         1.902047         2.042788
 C        -0.787553         1.282824         2.130933
 C        -0.690256         1.281175         0.620584
 O        -0.273001         0.137841        -0.008747
 C        -0.057049         2.554950        -0.111844
 C        -1.081138         3.692626         0.147060
 C        -2.330819         2.962257         0.857439
 C        -2.220268         1.483458         0.539238
 H        -3.517750         1.037014         2.942515
 H         0.059997         1.857208         2.589761
 H        -0.690987         0.276614         2.695270
 H        -0.391029         0.389704        -0.954819
 H         0.904081         2.978455         0.126425
 H        -0.048515         2.373861        -1.241757
 H        -0.476635         4.496380         0.720427
 H        -1.534961         3.949206        -0.799695
 H        -3.407768         3.303391         0.779743
 H        -2.832341         0.701594         0.187417
