19
Iteration:  4611
 O        -3.161182         1.807248         2.885094
 C        -2.091766         1.963576         2.040077
 C        -0.663947         1.459492         2.037546
 C        -0.773116         1.282139         0.493500
 O        -0.220141         0.027182         0.092280
 C        -0.224287         2.483106        -0.226915
 C        -1.041015         3.640878         0.306992
 C        -2.348330         2.981687         0.959188
 C        -2.345560         1.561286         0.621826
 H        -3.452274         0.950349         2.658473
 H         0.164462         2.067477         2.482298
 H        -0.562761         0.468863         2.633748
 H         0.738967         0.179238        -0.080786
 H         0.890976         2.695123         0.003546
 H        -0.446841         2.435409        -1.387243
 H        -0.419457         4.187850         1.173204
 H        -1.334279         4.227494        -0.574322
 H        -3.057434         3.758099         0.981788
 H        -3.151397         1.090456         0.050822
