19
Iteration:  1802charge 0 multiplicity 1
 O        -3.200282         2.016419         2.957087
 C        -2.135155         1.838301         2.033066
 C        -0.712194         1.300099         2.206815
 C        -0.702606         1.295033         0.556498
 O        -0.169338         0.124946        -0.089703
 C        -0.141672         2.519069        -0.210597
 C        -1.104175         3.667360         0.161329
 C        -2.306429         2.970226         0.971893
 C        -2.297520         1.484357         0.581188
 H        -3.432848         1.151408         3.249120
 H         0.018610         1.996641         2.656416
 H        -0.720767         0.293767         2.729426
 H         0.012006        -0.650716         0.470575
 H         0.965425         2.618782        -0.005944
 H        -0.140843         2.201883        -1.280045
 H        -0.583012         4.419547         0.801379
 H        -1.640505         4.349742        -0.570593
 H        -3.303294         3.395333         0.869664
 H        -3.042422         0.959494        -0.042594
