19
Iteration:  3440
 O        -2.993983         1.966987         3.106543
 C        -2.195290         1.898897         2.000847
 C        -0.760138         1.332152         2.030431
 C        -0.662742         1.259812         0.472935
 O        -0.149986         0.019794         0.038859
 C        -0.129167         2.554547        -0.001059
 C        -1.226965         3.700145         0.193421
 C        -2.372354         2.875722         0.825716
 C        -2.348467         1.434324         0.454332
 H        -3.145403         2.950545         3.335439
 H         0.038164         1.738831         2.687612
 H        -0.871148         0.248572         2.429369
 H        -0.130775         0.053457        -0.916247
 H         0.693300         3.092493         0.599252
 H         0.376704         2.409873        -1.030147
 H        -0.914306         4.490385         0.909598
 H        -1.569804         4.087808        -0.751830
 H        -3.304791         3.482195         1.037538
 H        -3.101723         0.860059         0.019449
