19
Iteration:   176
 O        -3.218482         2.018536         2.931875
 C        -2.207964         1.997871         1.978296
 C        -0.739105         1.475551         2.094372
 C        -0.741055         1.247003         0.529960
 O        -0.127621         0.029435        -0.001377
 C        -0.144831         2.502904        -0.160327
 C        -1.077586         3.572016         0.341509
 C        -2.341202         2.938415         0.838807
 C        -2.282504         1.402405         0.539526
 H        -3.070637         1.163127         3.458943
 H         0.095559         2.088593         2.687837
 H        -0.669563         0.456560         2.589959
 H         0.611947        -0.057939         0.615321
 H         0.915961         2.761637        -0.021053
 H        -0.226675         2.451908        -1.279052
 H        -0.671246         4.079384         1.196478
 H        -1.364431         4.337400        -0.332330
 H        -3.315681         3.487628         0.630572
 H        -2.943504         0.714615        -0.026101
