19
Iteration:  4277charge 0 multiplicity 1
 O        -3.251490         1.638408         2.950847
 C        -2.147084         1.861298         1.982072
 C        -0.682056         1.471502         2.089688
 C        -0.709004         1.352276         0.468351
 O        -0.348652         0.011428         0.111719
 C        -0.107406         2.522648        -0.275755
 C        -1.017299         3.790480         0.273469
 C        -2.256781         3.002039         0.955514
 C        -2.278159         1.516924         0.519537
 H        -2.864268         2.036159         3.815411
 H        -0.114405         2.391126         2.486838
 H        -0.326819         0.630154         2.617506
 H         0.396065        -0.136924         0.704120
 H         0.922229         2.617622        -0.264462
 H        -0.348242         2.442178        -1.382492
 H        -0.559639         4.452726         0.963725
 H        -1.386484         4.498790        -0.452171
 H        -3.254023         3.381528         0.742430
 H        -3.079470         0.949232        -0.027993
