19
Iteration:   630charge 0 multiplicity 1
 O        -3.297387         1.952413         2.877317
 C        -2.123393         1.977915         1.947611
 C        -0.661325         1.434240         2.168268
 C        -0.736374         1.214259         0.469269
 O        -0.221668         0.026222        -0.066274
 C        -0.096727         2.500112        -0.074342
 C        -1.028948         3.590566         0.458604
 C        -2.335924         2.997281         0.822137
 C        -2.239823         1.481764         0.566759
 H        -3.329867         1.441792         3.660305
 H         0.175213         2.049913         2.407399
 H        -0.728673         0.520870         2.835992
 H        -0.602641         0.010704        -0.982321
 H         0.969639         2.629470         0.277691
 H        -0.100841         2.464082        -1.233774
 H        -0.637295         4.133501         1.305459
 H        -1.083467         4.441820        -0.283230
 H        -3.320995         3.417964         0.897889
 H        -2.948655         0.758770         0.193830
