19
Iteration:  4634
 O        -3.209033         1.852355         2.927612
 C        -2.155109         1.920860         1.974196
 C        -0.687197         1.489813         2.051215
 C        -0.762903         1.233209         0.502734
 O        -0.227718         0.016376         0.123290
 C        -0.220241         2.499510        -0.303123
 C        -1.008936         3.754340         0.366547
 C        -2.287207         2.991626         0.974055
 C        -2.267768         1.468026         0.558509
 H        -3.416379         0.878462         3.071749
 H         0.179444         2.056198         2.450579
 H        -0.558162         0.521762         2.619685
 H         0.537022         0.227297        -0.453237
 H         0.937450         2.678439        -0.260262
 H        -0.608323         2.419226        -1.390056
 H        -0.313591         4.062522         1.227048
 H        -1.315713         4.509253        -0.383507
 H        -3.283384         3.538495         0.950664
 H        -3.084202         0.800345         0.229613
