19
Iteration:  3868
 O        -3.130073         1.674879         3.003044
 C        -2.187954         1.907341         2.000181
 C        -0.735867         1.425869         2.051890
 C        -0.719820         1.281848         0.507977
 O        -0.184148         0.046485         0.174991
 C        -0.186834         2.553695        -0.232064
 C        -1.010960         3.706297         0.298016
 C        -2.353571         3.077093         0.749823
 C        -2.253209         1.533308         0.521096
 H        -2.896084         2.509713         3.569002
 H        -0.010564         1.996107         2.636436
 H        -0.870267         0.329399         2.476604
 H        -0.989682        -0.532440         0.197206
 H         0.954551         2.717727        -0.107882
 H        -0.403627         2.407144        -1.329287
 H        -0.442671         4.110784         1.198970
 H        -1.156032         4.537435        -0.430549
 H        -3.418508         3.417767         0.691305
 H        -2.936613         1.011486        -0.150037
