19
Iteration:  4539
 O        -3.084226         2.011387         2.952728
 C        -2.103156         1.914065         1.900397
 C        -0.735308         1.388090         1.992562
 C        -0.819630         1.228332         0.490608
 O        -0.196179        -0.063271        -0.070534
 C        -0.127808         2.601272         0.001167
 C        -1.142993         3.708563         0.394196
 C        -2.368128         2.931398         0.878768
 C        -2.294541         1.441791         0.545657
 H        -2.967889         1.336166         3.579805
 H         0.105537         1.962235         2.394397
 H        -0.792416         0.485606         2.519713
 H         0.734737        -0.080149         0.312690
 H         0.797443         2.814338         0.403869
 H        -0.107005         2.684487        -0.989527
 H        -0.901174         4.379482         1.112708
 H        -1.361490         4.149192        -0.584566
 H        -3.400922         3.461867         1.037585
 H        -3.104937         0.953054         0.009569
