19
Iteration:  2675charge 0 multiplicity 1
 O        -2.951037         1.935039         3.136456
 C        -2.077854         1.952339         1.936936
 C        -0.680450         1.358232         2.019966
 C        -0.806322         1.267166         0.486258
 O        -0.317712        -0.008057        -0.036512
 C        -0.134793         2.561292        -0.023246
 C        -1.154332         3.689259         0.274939
 C        -2.366956         2.932749         0.797336
 C        -2.327644         1.436701         0.589753
 H        -3.844869         1.620035         2.917426
 H         0.206805         1.993924         2.443184
 H        -0.777987         0.432566         2.610828
 H         0.109706         0.089584        -0.901340
 H         0.798108         2.807832         0.535325
 H         0.168179         2.601751        -1.100344
 H        -0.699969         4.430552         0.974098
 H        -1.282349         4.273814        -0.644505
 H        -3.227598         3.508067         0.791059
 H        -3.148073         0.911579         0.160871
