19
Iteration:  4799charge 0 multiplicity 1
 O        -3.108574         1.820121         3.017293
 C        -2.219188         1.838664         1.928762
 C        -0.732855         1.520849         2.025285
 C        -0.689563         1.310348         0.460689
 O        -0.235069         0.014504         0.225379
 C        -0.204745         2.532787        -0.274647
 C        -1.018049         3.687879         0.470279
 C        -2.280420         2.959260         0.806755
 C        -2.335607         1.538955         0.443047
 H        -3.019303         1.017953         3.517556
 H         0.030439         2.082449         2.659425
 H        -0.705574         0.452702         2.393739
 H        -0.086398        -0.140169        -0.703442
 H         0.844587         2.762770        -0.092170
 H        -0.353491         2.509224        -1.374167
 H        -0.455536         4.191403         1.290163
 H        -1.196075         4.551926        -0.160026
 H        -3.293938         3.402525         0.814653
 H        -3.083338         1.028903        -0.182055
