19
Iteration:  2053
 O        -3.151330         1.810852         2.861281
 C        -2.114517         1.967604         1.997622
 C        -0.653072         1.470412         2.105479
 C        -0.698694         1.314718         0.525450
 O        -0.192995         0.050034         0.159529
 C        -0.278661         2.515378        -0.338543
 C        -1.062522         3.624519         0.370315
 C        -2.321029         2.936056         0.905696
 C        -2.284382         1.474342         0.573911
 H        -3.086157         2.185895         3.736796
 H         0.259312         2.008842         2.317564
 H        -0.646541         0.547875         2.652077
 H        -0.802748        -0.324770        -0.527677
 H         0.817516         2.734053        -0.452618
 H        -0.714672         2.442562        -1.335583
 H        -0.424360         4.131092         1.111287
 H        -1.222192         4.459653        -0.335062
 H        -3.276027         3.466384         0.970612
 H        -3.016878         0.812615         0.214320
