19
Iteration:   547charge 0 multiplicity 1
 O        -3.224878         1.767730         2.974950
 C        -2.180436         2.006048         2.018685
 C        -0.768131         1.380794         2.111655
 C        -0.737098         1.333956         0.582037
 O        -0.178092        -0.063819         0.038253
 C        -0.114357         2.529794        -0.123442
 C        -0.965963         3.691484         0.262285
 C        -2.250065         3.070602         0.817262
 C        -2.300525         1.514703         0.587173
 H        -4.145809         1.776022         2.569923
 H         0.075823         2.088490         2.471024
 H        -0.652985         0.417002         2.481960
 H        -0.288482         0.007422        -0.908290
 H         0.855839         2.644615         0.298563
 H        -0.060992         2.401924        -1.166121
 H        -0.470366         4.258359         1.068551
 H        -1.347565         4.269320        -0.535703
 H        -3.254264         3.483725         0.720384
 H        -3.040571         0.935646         0.093174
