19
Iteration:   148charge 0 multiplicity 1
 O        -2.959636         2.006919         3.077372
 C        -2.234741         1.879229         1.854866
 C        -0.762040         1.392824         2.040996
 C        -0.745236         1.242101         0.558888
 O        -0.142842         0.040753         0.140967
 C        -0.159945         2.567356        -0.067082
 C        -1.151871         3.739987         0.278367
 C        -2.338860         2.888623         0.733628
 C        -2.331262         1.413895         0.391460
 H        -3.726116         1.357044         3.108653
 H        -0.049850         1.889792         2.657811
 H        -0.614919         0.424245         2.522823
 H        -0.152994        -0.421731         1.001728
 H         0.857929         2.795395         0.273320
 H        -0.063473         2.450954        -1.136881
 H        -0.776614         4.329310         1.169333
 H        -1.401053         4.538297        -0.495486
 H        -3.299093         3.317389         0.556844
 H        -3.018654         0.951723        -0.285462
