19
Iteration:  1269charge 0 multiplicity 1
 O        -3.036740         1.822962         2.976435
 C        -2.154716         1.892248         1.915912
 C        -0.711082         1.531708         2.060250
 C        -0.759944         1.321649         0.506472
 O        -0.395347         0.002749         0.170554
 C        -0.033334         2.620037        -0.087681
 C        -1.058196         3.642120         0.349617
 C        -2.296593         2.978286         0.829698
 C        -2.301820         1.447474         0.392221
 H        -2.811975         1.089452         3.498727
 H        -0.019363         2.066131         2.677188
 H        -0.725453         0.489023         2.544928
 H        -1.125747        -0.513509        -0.172221
 H         1.005089         2.823047         0.274770
 H        -0.187581         2.498576        -1.174434
 H        -0.526658         4.382657         1.000703
 H        -1.438662         4.121509        -0.590376
 H        -3.145873         3.659422         0.718637
 H        -2.901595         0.851249        -0.362322
