19
Iteration:   129
 O        -2.972048         1.875864         3.132794
 C        -2.185768         1.959151         1.921471
 C        -0.854437         1.444420         2.067104
 C        -0.724340         1.271949         0.561863
 O        -0.120798         0.055174         0.093172
 C        -0.124441         2.551793        -0.053733
 C        -1.136210         3.659566         0.225083
 C        -2.407994         2.919397         0.725303
 C        -2.249008         1.449197         0.415040
 H        -3.919282         1.945618         2.872091
 H         0.039713         2.176871         2.569499
 H        -0.874479         0.558481         2.739539
 H        -0.601157        -0.746340         0.403460
 H         0.914553         2.661762         0.339895
 H         0.125951         2.422697        -1.151121
 H        -0.839103         4.520698         0.840116
 H        -1.444128         4.136191        -0.732978
 H        -3.378661         3.375287         0.771224
 H        -2.918720         0.866084        -0.246233
