19
Iteration:  3054
 O        -3.066608         1.964423         2.974375
 C        -2.115501         1.897684         2.032431
 C        -0.657653         1.272011         2.019203
 C        -0.770696         1.275686         0.475776
 O        -0.114039         0.070339         0.094850
 C        -0.203656         2.567205        -0.150051
 C        -1.236814         3.682823         0.292918
 C        -2.336977         2.933025         0.912529
 C        -2.337649         1.387965         0.560902
 H        -3.147632         2.883225         3.168686
 H         0.154440         1.795267         2.609503
 H        -0.727026         0.227890         2.314519
 H         0.089101         0.125280        -0.844542
 H         0.784982         2.747418         0.299048
 H        -0.216800         2.293299        -1.214759
 H        -0.617579         4.334299         0.912502
 H        -1.612536         4.259001        -0.572402
 H        -3.308897         3.513644         0.890916
 H        -3.176736         0.940403        -0.025272
