19
Iteration:  4336
 O        -3.101674         1.943374         3.050409
 C        -2.256186         1.970797         2.012624
 C        -0.765453         1.379490         2.152847
 C        -0.679438         1.359237         0.563605
 O        -0.278301         0.013251        -0.081986
 C        -0.123146         2.586709        -0.105899
 C        -1.108319         3.681702         0.309161
 C        -2.305514         2.922432         0.744982
 C        -2.264237         1.378818         0.497417
 H        -2.818393         1.163478         3.575607
 H        -0.131017         1.932014         2.883320
 H        -0.895114         0.278442         2.502488
 H         0.632499         0.038292        -0.511947
 H         0.899412         3.018880         0.189270
 H        -0.298867         2.356746        -1.106379
 H        -0.613338         4.016536         1.281256
 H        -1.149140         4.384804        -0.521978
 H        -3.324640         3.368412         0.587969
 H        -2.782761         0.671008        -0.111095
