19
Iteration:   239
 O        -3.191865         1.701862         2.914468
 C        -2.176919         1.986529         1.913217
 C        -0.767535         1.416786         1.992804
 C        -0.784217         1.305466         0.518572
 O        -0.187504        -0.015872         0.305060
 C        -0.072157         2.572209        -0.140056
 C        -1.011746         3.729313         0.271766
 C        -2.333363         3.010929         0.811052
 C        -2.276929         1.531601         0.506783
 H        -3.012319         2.044348         3.811933
 H         0.044280         2.072480         2.347955
 H        -0.625508         0.518435         2.482638
 H        -0.576544        -0.520501        -0.412320
 H         1.009914         2.570964         0.048813
 H        -0.276233         2.376467        -1.216642
 H        -0.610495         4.404739         1.059611
 H        -1.200630         4.448357        -0.531758
 H        -3.294587         3.544204         0.780763
 H        -2.895339         0.804220        -0.006395
