19
Iteration:  2264charge 0 multiplicity 1
 O        -3.166927         1.920047         3.147455
 C        -2.113461         1.895460         2.075155
 C        -0.674943         1.437877         2.120576
 C        -0.711103         1.281831         0.478460
 O        -0.322358         0.058207        -0.070103
 C        -0.221864         2.499395        -0.231908
 C        -1.106778         3.629181         0.153255
 C        -2.258201         2.987670         0.925986
 C        -2.189256         1.493563         0.623570
 H        -3.741629         1.188407         3.052119
 H         0.018642         2.204190         2.447154
 H        -0.464325         0.424802         2.584159
 H         0.631792         0.040793        -0.375497
 H         0.859630         2.611123        -0.147829
 H        -0.351148         2.202959        -1.271226
 H        -0.621185         4.371748         0.749653
 H        -1.559611         4.225037        -0.633969
 H        -3.301551         3.318640         0.897927
 H        -2.918075         0.943550         0.090193
