19
Iteration:  4447charge 0 multiplicity 1
 O        -3.163420         1.759826         2.946597
 C        -2.134780         1.901396         1.905584
 C        -0.609382         1.575371         2.011453
 C        -0.722351         1.291980         0.464547
 O        -0.412974         0.032724         0.140242
 C        -0.094152         2.579720        -0.219618
 C        -1.045398         3.691702         0.401759
 C        -2.322609         2.898124         0.917408
 C        -2.303968         1.514527         0.492532
 H        -3.288445         0.821446         3.301044
 H        -0.001202         2.371369         2.443092
 H        -0.444400         0.599493         2.644525
 H         0.520889        -0.129340         0.237153
 H         0.956762         2.666997         0.219046
 H        -0.205533         2.471016        -1.287587
 H        -0.464135         4.213524         1.183032
 H        -1.235718         4.202152        -0.521286
 H        -3.187821         3.455974         0.960091
 H        -3.227145         1.091371         0.105743
