19
Iteration:  3651
 O        -3.034324         1.784154         3.145830
 C        -2.223390         1.928561         1.958911
 C        -0.814053         1.483386         2.084310
 C        -0.780200         1.282322         0.583377
 O        -0.226067         0.080001         0.035931
 C        -0.046886         2.493748        -0.081633
 C        -1.135086         3.629789         0.159249
 C        -2.332812         2.892274         0.823163
 C        -2.274201         1.492438         0.466403
 H        -2.869597         2.571129         3.635701
 H        -0.063267         2.082019         2.652225
 H        -0.869893         0.504156         2.586165
 H         0.113406         0.307091        -0.842043
 H         0.971694         2.718759         0.220283
 H         0.053492         2.514847        -1.158060
 H        -0.721552         4.457853         0.692500
 H        -1.494100         4.083003        -0.786740
 H        -3.255992         3.416401         0.608114
 H        -3.000493         0.954749        -0.069715
