19
Iteration:  4628charge 0 multiplicity 1
 O        -3.214165         1.825863         2.907739
 C        -2.147204         1.943499         1.949882
 C        -0.664233         1.483885         2.022626
 C        -0.743839         1.244228         0.507357
 O        -0.224001         0.031207         0.133321
 C        -0.217344         2.498855        -0.294367
 C        -1.028722         3.713686         0.392047
 C        -2.238263         3.064966         0.953665
 C        -2.335646         1.463801         0.583159
 H        -3.509886         0.952071         3.003140
 H         0.192589         2.019747         2.484021
 H        -0.434494         0.506188         2.408959
 H         0.619928         0.196408        -0.367477
 H         0.829239         2.540361        -0.246939
 H        -0.523268         2.344742        -1.276328
 H        -0.414820         4.108595         1.137091
 H        -1.375266         4.405521        -0.383857
 H        -3.280704         3.356929         1.088478
 H        -3.174830         0.784752         0.487762
