19
Iteration:  2917
 O        -3.085933         1.790257         3.005133
 C        -2.108389         2.024166         2.011646
 C        -0.721778         1.411883         2.034951
 C        -0.844568         1.201581         0.566927
 O        -0.041228         0.160332         0.065273
 C        -0.237614         2.467331        -0.173704
 C        -1.055051         3.658961         0.324641
 C        -2.343677         3.005170         0.815078
 C        -2.414149         1.488385         0.483918
 H        -2.567373         1.684061         3.899985
 H         0.205456         1.941144         2.350605
 H        -0.976436         0.423590         2.450154
 H        -0.598204        -0.337594        -0.585623
 H         0.850439         2.544635         0.109390
 H        -0.297683         2.399610        -1.307113
 H        -0.498503         4.182486         1.115647
 H        -1.259894         4.147038        -0.632651
 H        -3.309541         3.623832         0.684223
 H        -3.386125         0.974297         0.391093
