19
Iteration:   886charge 0 multiplicity 1
 O        -3.202962         2.048870         3.033909
 C        -2.150769         1.929841         1.984151
 C        -0.696284         1.349748         2.103271
 C        -0.749669         1.217405         0.562967
 O        -0.074001         0.078523        -0.008218
 C        -0.182972         2.518724        -0.165989
 C        -1.070016         3.591463         0.365385
 C        -2.304503         2.973966         0.863026
 C        -2.290682         1.450986         0.497425
 H        -3.881250         1.461880         2.716411
 H         0.323390         1.702688         2.428533
 H        -0.920480         0.465678         2.632774
 H        -0.469051        -0.204083        -0.868428
 H         0.852748         2.688432         0.205953
 H        -0.432397         2.282074        -1.259345
 H        -0.631541         4.218763         1.196564
 H        -1.212242         4.459802        -0.289359
 H        -3.295365         3.347259         0.700263
 H        -3.134266         1.039361        -0.026882
