19
Iteration:  4889
 O        -3.062352         1.899244         3.061040
 C        -2.153863         1.908490         1.979562
 C        -0.754898         1.300516         2.118704
 C        -0.739040         1.235382         0.582730
 O        -0.307291         0.066218         0.018799
 C        -0.031342         2.645232        -0.041553
 C        -1.148373         3.707721         0.228397
 C        -2.344804         2.911632         0.804971
 C        -2.227527         1.492622         0.473290
 H        -3.237712         0.926977         3.098911
 H         0.006625         2.026551         2.538127
 H        -0.794655         0.501321         2.809118
 H        -0.393649         0.008723        -0.952120
 H         0.933127         3.082007         0.366047
 H         0.159443         2.400511        -1.060116
 H        -0.898224         4.506139         0.879782
 H        -1.543613         4.180677        -0.701953
 H        -3.321894         3.388842         0.736136
 H        -2.775579         0.991172        -0.372742
