19
Iteration:  1170charge 0 multiplicity 1
 O        -3.080549         1.989570         3.058189
 C        -2.260068         1.919290         1.957961
 C        -0.734554         1.481231         1.978755
 C        -0.842669         1.205381         0.460849
 O        -0.172872        -0.031109         0.039213
 C        -0.104057         2.577178        -0.134798
 C        -1.047060         3.693237         0.398700
 C        -2.313618         2.924452         0.840232
 C        -2.312230         1.477563         0.449192
 H        -3.144229         1.054917         3.237408
 H         0.152640         2.145902         2.419963
 H        -0.648523         0.467588         2.408642
 H        -0.076161        -0.603304         0.862295
 H         0.953518         2.582615         0.257393
 H        -0.221261         2.576324        -1.228318
 H        -0.671279         4.182649         1.350390
 H        -1.149471         4.541301        -0.354935
 H        -3.334134         3.253840         0.668801
 H        -3.017137         1.007808        -0.233064
