19
Iteration:  3746
 O        -3.112820         1.780654         3.059147
 C        -2.192770         1.878994         1.925896
 C        -0.767476         1.535581         2.014200
 C        -0.732359         1.317297         0.477731
 O        -0.132059         0.062137         0.115993
 C        -0.128975         2.517142        -0.258492
 C        -1.086634         3.629480         0.307153
 C        -2.304602         3.007372         0.896580
 C        -2.317769         1.420902         0.567644
 H        -3.119712         2.634471         3.546045
 H        -0.113138         2.180484         2.541794
 H        -0.737685         0.523538         2.630526
 H        -0.667854        -0.635684        -0.336209
 H         0.975562         2.485071         0.079161
 H        -0.103150         2.400631        -1.368115
 H        -0.842895         4.409405         1.110502
 H        -1.387945         4.229089        -0.584965
 H        -3.250703         3.486442         0.864149
 H        -3.041158         0.993429        -0.087834
