19
Iteration:  3523
 O        -3.130751         1.667931         2.877492
 C        -2.160544         1.934733         1.981505
 C        -0.607489         1.616691         2.030204
 C        -0.786347         1.295508         0.523232
 O        -0.322333        -0.109539         0.299521
 C        -0.215553         2.631811        -0.351807
 C        -1.017870         3.699653         0.339407
 C        -2.328411         2.961550         0.885241
 C        -2.270367         1.471362         0.528895
 H        -2.896329         2.152042         3.726030
 H         0.180211         2.393281         2.253519
 H        -0.472982         0.709102         2.501950
 H         0.240566        -0.173328        -0.501720
 H         0.796572         2.898214        -0.260259
 H        -0.587402         2.464322        -1.380290
 H        -0.538373         4.132876         1.244789
 H        -1.220538         4.555329        -0.368858
 H        -3.223169         3.574207         1.054619
 H        -2.978266         0.886265         0.024454
