19
Iteration:  4298
 O        -3.157623         1.733000         2.895262
 C        -2.148539         1.914336         1.943308
 C        -0.720192         1.535821         2.034379
 C        -0.744254         1.289713         0.526967
 O        -0.227715        -0.067099         0.082148
 C        -0.199330         2.557427        -0.172235
 C        -1.042437         3.621249         0.307104
 C        -2.302768         3.030624         0.972715
 C        -2.371466         1.579319         0.523155
 H        -2.782919         1.570004         3.732181
 H        -0.030876         2.346025         2.398601
 H        -0.512591         0.556056         2.364807
 H         0.711918        -0.010351         0.312932
 H         0.796546         2.683257         0.135461
 H        -0.040432         2.403759        -1.293006
 H        -0.501209         4.271725         0.943935
 H        -1.541930         4.318961        -0.404909
 H        -3.164753         3.698760         1.108620
 H        -3.011913         1.034460        -0.203909
