19
Iteration:  4428
 O        -3.091638         1.764821         2.983933
 C        -2.193276         1.806549         1.972725
 C        -0.784254         1.486842         2.157658
 C        -0.691160         1.338197         0.559746
 O        -0.399131         0.041657         0.059778
 C        -0.149425         2.537322        -0.272190
 C        -1.006775         3.763850         0.307611
 C        -2.306008         2.986088         0.845022
 C        -2.245245         1.543538         0.501171
 H        -2.873091         0.817330         3.364103
 H        -0.078797         2.212043         2.534134
 H        -0.538070         0.515638         2.565113
 H         0.434528        -0.147295         0.465359
 H         0.827565         2.676041         0.063430
 H        -0.291021         2.266767        -1.279139
 H        -0.553720         4.261218         1.098574
 H        -1.353651         4.456585        -0.530367
 H        -3.227316         3.517709         0.808398
 H        -2.572346         0.852878        -0.288878
