19
Iteration:  4582charge 0 multiplicity 1
 O        -3.076734         1.846802         3.104288
 C        -2.238921         1.874937         1.980839
 C        -0.799866         1.483176         2.121142
 C        -0.622104         1.321096         0.539676
 O        -0.366993         0.033556        -0.037097
 C        -0.137921         2.582183        -0.147716
 C        -1.033596         3.724566         0.289419
 C        -2.310685         2.924765         0.793388
 C        -2.228964         1.453438         0.518092
 H        -3.388864         0.921890         3.203264
 H        -0.146385         2.042662         2.803255
 H        -0.668290         0.524984         2.551569
 H         0.580030        -0.263653         0.095228
 H         0.950806         2.735280        -0.056922
 H        -0.278254         2.434142        -1.154454
 H        -0.593901         4.367289         0.938759
 H        -1.346361         4.189386        -0.665376
 H        -3.295864         3.605781         0.633106
 H        -2.834215         0.868912        -0.195627
