19
Iteration:  2413charge 0 multiplicity 1
 O        -3.144201         1.849426         3.006786
 C        -2.111890         1.817199         2.017643
 C        -0.621611         1.527465         2.092999
 C        -0.720762         1.300627         0.504193
 O        -0.329465        -0.000715         0.193859
 C        -0.312648         2.486371        -0.423576
 C        -1.062991         3.694630         0.319414
 C        -2.156163         2.938022         0.983748
 C        -2.243450         1.555141         0.528455
 H        -3.600945         0.977439         2.952135
 H        -0.086547         2.396047         2.500742
 H        -0.371935         0.650360         2.649033
 H         0.045936         0.045667        -0.733498
 H         0.734733         2.768460        -0.612496
 H        -0.961744         2.339802        -1.311850
 H        -0.262230         4.273602         0.927594
 H        -1.623899         4.408085        -0.355809
 H        -3.111560         3.461408         0.933256
 H        -3.006418         1.140867        -0.057163
