19
Iteration:  2097
 O        -2.908348         1.814072         3.177089
 C        -2.205486         1.937937         1.914843
 C        -0.804370         1.472328         2.112767
 C        -0.812617         1.231792         0.514545
 O        -0.292437         0.021062         0.030076
 C        -0.039743         2.521695        -0.162610
 C        -1.081155         3.662064         0.245197
 C        -2.360642         2.957994         0.887605
 C        -2.321269         1.456264         0.469161
 H        -3.704821         2.318819         3.097927
 H        -0.287266         2.370424         2.525094
 H        -0.787247         0.519329         2.622006
 H         0.436133         0.150147        -0.646684
 H         1.005696         2.646293         0.260974
 H         0.129846         2.504940        -1.258971
 H        -0.866252         4.597042         0.797937
 H        -1.602479         4.059062        -0.669046
 H        -3.313492         3.525972         0.828042
 H        -2.870276         0.931121        -0.275849
