19
Iteration:  2234charge 0 multiplicity 1
 O        -3.030820         1.861939         2.975004
 C        -2.087729         1.902482         1.900824
 C        -0.655666         1.499174         1.973105
 C        -0.752558         1.276341         0.479438
 O        -0.344961        -0.048035         0.256142
 C        -0.281679         2.603891        -0.298000
 C        -1.050887         3.675634         0.384413
 C        -2.299329         3.014538         0.909619
 C        -2.300493         1.455402         0.533788
 H        -3.105340         0.872937         3.222353
 H         0.069920         2.216531         2.291193
 H        -0.474647         0.595635         2.542120
 H         0.081687        -0.192954        -0.581816
 H         0.785384         2.760216        -0.305043
 H        -0.551581         2.456987        -1.363506
 H        -0.493848         4.128294         1.249081
 H        -1.450296         4.494922        -0.216933
 H        -3.241632         3.599315         1.075422
 H        -3.048792         0.795328         0.159481
