19
Iteration:  3267
 O        -3.041005         1.894825         3.211141
 C        -2.194127         1.964054         2.000944
 C        -0.770816         1.410459         2.079981
 C        -0.700308         1.263794         0.526969
 O        -0.225357         0.075703         0.015808
 C        -0.095633         2.494668        -0.114553
 C        -1.182271         3.679407         0.149200
 C        -2.334703         2.928479         0.825151
 C        -2.233687         1.397011         0.571058
 H        -3.888950         2.219415         2.838415
 H         0.089575         1.852939         2.590555
 H        -0.879407         0.292672         2.414821
 H        -0.116071         0.223044        -0.965932
 H         0.867200         2.723564         0.361898
 H        -0.004083         2.433266        -1.223343
 H        -0.545752         4.463777         0.635953
 H        -1.477805         4.048201        -0.861766
 H        -3.381420         3.321299         0.758756
 H        -2.837813         1.113660        -0.264098
