19
Iteration:   373charge 0 multiplicity 1
 O        -3.092381         1.792757         3.005053
 C        -2.278203         1.886499         1.914494
 C        -0.848400         1.501198         2.070741
 C        -0.724955         1.331581         0.489871
 O        -0.332037        -0.001158         0.125147
 C        -0.026250         2.537552        -0.116408
 C        -1.024575         3.621760         0.318941
 C        -2.293958         3.022610         0.837219
 C        -2.219339         1.591931         0.437429
 H        -2.975988         0.872531         3.252592
 H        -0.173923         2.127096         2.634158
 H        -0.762568         0.515645         2.388452
 H         0.276903        -0.398143         0.775954
 H         1.041314         2.662952         0.169588
 H        -0.188654         2.392561        -1.209678
 H        -0.667495         4.374486         1.014264
 H        -1.188111         4.289306        -0.476947
 H        -3.278689         3.410871         0.578109
 H        -2.890779         1.051448        -0.275198
