19
Iteration:  1219charge 0 multiplicity 1
 O        -3.195514         2.044110         2.996775
 C        -2.156293         2.011018         2.042373
 C        -0.838413         1.260049         2.124145
 C        -0.701208         1.232008         0.587602
 O        -0.135652         0.190461        -0.149980
 C        -0.132422         2.473624        -0.149797
 C        -1.069052         3.654312         0.297412
 C        -2.261485         2.909065         0.827345
 C        -2.261557         1.450033         0.558330
 H        -3.251660         1.065324         3.298875
 H         0.071094         1.903830         2.523597
 H        -0.903547         0.321061         2.719378
 H        -0.282313        -0.632784         0.331261
 H         0.945910         2.443454         0.060286
 H        -0.397950         2.169582        -1.177224
 H        -0.569567         4.352307         0.988018
 H        -1.405340         4.186737        -0.576195
 H        -3.213995         3.479863         0.876185
 H        -3.224252         0.971978         0.312377
