19
Iteration:  3264
 O        -3.027136         1.901474         3.213879
 C        -2.174469         1.990541         1.978553
 C        -0.793281         1.363810         2.095911
 C        -0.668017         1.266195         0.517731
 O        -0.221658         0.069875         0.013357
 C        -0.107256         2.509336        -0.097295
 C        -1.218483         3.673421         0.145373
 C        -2.347271         2.918252         0.821681
 C        -2.233725         1.441591         0.570305
 H        -3.893300         2.268496         2.788106
 H         0.128928         1.787869         2.587208
 H        -0.902095         0.330495         2.380448
 H         0.015790         0.123937        -0.905536
 H         0.899326         2.746238         0.348349
 H         0.005543         2.240571        -1.208905
 H        -0.600183         4.386819         0.655014
 H        -1.501250         4.122172        -0.792731
 H        -3.350962         3.274861         0.806911
 H        -2.886305         1.096178        -0.300796
