19
Iteration:   525charge 0 multiplicity 1
 O        -3.181882         1.844889         2.921762
 C        -2.118303         1.956637         1.972407
 C        -0.717496         1.441370         2.249053
 C        -0.710304         1.289001         0.555029
 O        -0.351612         0.097222        -0.019007
 C        -0.021244         2.489810        -0.047400
 C        -1.038025         3.618359         0.317526
 C        -2.332951         2.939843         0.842017
 C        -2.188011         1.440587         0.475637
 H        -4.001327         2.206898         2.611126
 H        -0.061839         2.288548         2.683393
 H        -0.699051         0.609751         2.875397
 H        -0.534675         0.168634        -0.991797
 H         1.002437         2.466539         0.222614
 H        -0.081157         2.397279        -1.103488
 H        -0.715720         4.348668         1.081828
 H        -1.303352         4.078940        -0.611809
 H        -3.332424         3.378014         0.847443
 H        -2.797344         0.749985        -0.062290
