19
Iteration:  4486charge 0 multiplicity 1
 O        -3.112809         1.853436         3.005693
 C        -2.148943         1.922060         1.969341
 C        -0.763221         1.424150         2.178567
 C        -0.690190         1.269191         0.582279
 O        -0.275103         0.075269        -0.001585
 C        -0.177265         2.501089        -0.212189
 C        -1.023908         3.721489         0.345780
 C        -2.302276         2.947914         0.817645
 C        -2.300185         1.477773         0.518989
 H        -3.570845         1.049906         2.954744
 H         0.063382         2.044881         2.618124
 H        -0.722691         0.491004         2.715915
 H         0.646081        -0.033990        -0.378067
 H         0.874685         2.781823        -0.193334
 H        -0.417603         2.428287        -1.375608
 H        -0.513827         4.338125         1.176905
 H        -1.380285         4.454659        -0.425598
 H        -3.385311         3.406565         0.790297
 H        -3.096551         0.895483         0.012755
