19
Iteration:  4145charge 0 multiplicity 1
 O        -3.102148         1.827640         2.952004
 C        -2.170476         1.951063         1.965537
 C        -0.756684         1.371130         2.079583
 C        -0.739989         1.301237         0.481708
 O        -0.139993         0.055448         0.029086
 C        -0.104603         2.507192        -0.062411
 C        -1.126330         3.637247         0.283483
 C        -2.339234         2.987324         0.896780
 C        -2.328834         1.449014         0.548324
 H        -3.598987         2.678529         3.197255
 H         0.068764         2.121578         2.460268
 H        -0.568521         0.353742         2.381635
 H        -0.355341        -0.045840        -0.903459
 H         0.764857         2.583661         0.504697
 H         0.142954         2.509627        -1.199741
 H        -0.660983         4.195711         1.089936
 H        -1.353716         4.389230        -0.494745
 H        -3.218987         3.703464         1.040186
 H        -3.128378         0.799641         0.273748
