19
Iteration:  2224
 O        -2.993402         1.821690         2.966747
 C        -2.141183         1.955030         1.971191
 C        -0.645895         1.520486         1.948673
 C        -0.777087         1.303666         0.438254
 O        -0.296981        -0.054024         0.275719
 C        -0.309446         2.490830        -0.230593
 C        -1.046406         3.730974         0.413266
 C        -2.357837         2.950423         0.863647
 C        -2.269907         1.535816         0.482019
 H        -2.805787         0.903828         3.399948
 H         0.116407         2.257680         2.209610
 H        -0.510822         0.592044         2.471826
 H        -0.264062        -0.179185        -0.671524
 H         0.760645         2.628227        -0.244216
 H        -0.822407         2.488878        -1.231846
 H        -0.507978         4.039393         1.369992
 H        -0.933309         4.547165        -0.339341
 H        -3.323749         3.525865         0.788170
 H        -3.070629         0.945134         0.101105
