19
Iteration:  4169charge 0 multiplicity 1
 O        -3.006023         1.881006         3.051339
 C        -2.167483         2.035652         1.974440
 C        -0.817945         1.268957         2.081471
 C        -0.745524         1.228523         0.585591
 O        -0.149476         0.023551        -0.050122
 C        -0.127378         2.553093         0.014431
 C        -1.130513         3.730723         0.312856
 C        -2.351821         2.916261         0.747821
 C        -2.299969         1.473701         0.541090
 H        -3.745147         2.575130         3.070882
 H         0.163172         1.620779         2.579849
 H        -1.004658         0.257840         2.338228
 H         0.243721         0.422694        -0.881373
 H         0.922331         2.717554         0.318097
 H        -0.228539         2.456865        -1.112805
 H        -0.879649         4.474742         1.112278
 H        -1.323327         4.230076        -0.652834
 H        -3.379319         3.165662         0.432424
 H        -3.164688         0.995019         0.054634
