19
Iteration:  3873charge 0 multiplicity 1
 O        -3.116261         1.669584         3.009405
 C        -2.223555         1.860143         1.975678
 C        -0.774537         1.463203         2.072608
 C        -0.705997         1.291291         0.504240
 O        -0.204273         0.041350         0.160873
 C        -0.173899         2.511856        -0.267909
 C        -0.990356         3.726137         0.360130
 C        -2.317148         3.068750         0.728040
 C        -2.248984         1.560741         0.530567
 H        -2.985302         2.337447         3.645645
 H        -0.121085         2.221158         2.561220
 H        -0.752631         0.509069         2.455123
 H        -0.877588        -0.613135         0.369516
 H         0.835581         2.812626        -0.316145
 H        -0.514897         2.255847        -1.269025
 H        -0.481613         4.224313         1.171404
 H        -1.219121         4.508761        -0.377492
 H        -3.288850         3.516382         0.727851
 H        -2.827497         0.937901        -0.169886
