19
Iteration:   368
 O        -3.095065         1.801038         3.057462
 C        -2.249251         1.901195         1.909508
 C        -0.920211         1.492744         2.100708
 C        -0.666095         1.327212         0.440886
 O        -0.312453         0.000921         0.119181
 C        -0.041429         2.539149        -0.126922
 C        -1.005264         3.646785         0.314399
 C        -2.295322         2.998651         0.820905
 C        -2.240418         1.564041         0.415723
 H        -3.093836         0.816136         3.194700
 H        -0.243580         2.159831         2.711114
 H        -0.833782         0.354119         2.355325
 H         0.256195        -0.318064         0.852348
 H         0.996571         2.735866         0.107861
 H        -0.014173         2.400961        -1.216484
 H        -0.590565         4.323547         1.132033
 H        -1.279256         4.261083        -0.640717
 H        -3.229203         3.572184         0.687762
 H        -3.017086         1.106919        -0.151334
