19
Iteration:  4657charge 0 multiplicity 1
 O        -3.123141         1.910618         3.072721
 C        -2.243785         1.904693         1.927012
 C        -0.779874         1.504163         2.146149
 C        -0.656551         1.301162         0.543093
 O        -0.270446         0.021193         0.051442
 C        -0.180563         2.517532        -0.238581
 C        -1.070791         3.632616         0.418881
 C        -2.278856         2.923649         0.812937
 C        -2.215769         1.487921         0.439836
 H        -3.022721         1.031356         3.509948
 H        -0.109878         2.113878         2.769750
 H        -0.521897         0.505258         2.475652
 H         0.220432         0.113767        -0.752585
 H         0.988835         2.786830        -0.235936
 H        -0.584271         2.376488        -1.298890
 H        -0.511803         4.022096         1.304193
 H        -1.352102         4.372799        -0.359504
 H        -3.368169         3.337735         0.686832
 H        -2.910594         1.051094        -0.308647
