19
Iteration:  3005charge 0 multiplicity 1
 O        -2.932445         1.708817         3.118319
 C        -2.208330         2.052518         1.989907
 C        -0.787444         1.487665         2.033792
 C        -0.783851         1.228437         0.533208
 O        -0.138103         0.040030         0.116620
 C        -0.197683         2.500701        -0.194647
 C        -1.099090         3.673791         0.266723
 C        -2.370570         2.985927         0.776826
 C        -2.278237         1.474050         0.524554
 H        -3.858946         2.092247         3.005323
 H         0.010347         2.079873         2.496845
 H        -0.856726         0.545990         2.655802
 H        -0.199870         0.155366        -0.872903
 H         0.825843         2.727464         0.124335
 H        -0.341497         2.376747        -1.308991
 H        -0.743273         4.308666         1.107538
 H        -1.108557         4.307434        -0.625372
 H        -3.344452         3.454516         0.780647
 H        -3.119667         1.002003         0.086776
