19
Iteration:  2014charge 0 multiplicity 1
 O        -3.236754         1.797879         3.032502
 C        -2.156296         1.987171         2.040021
 C        -0.756651         1.523545         2.100731
 C        -0.715681         1.247124         0.558409
 O        -0.182452         0.131142        -0.002667
 C        -0.158158         2.487635        -0.319026
 C        -0.981910         3.581601         0.255100
 C        -2.296989         2.947260         0.937356
 C        -2.279599         1.512179         0.503534
 H        -2.710622         1.500629         3.802109
 H         0.037893         2.279681         2.350996
 H        -0.542191         0.547920         2.690565
 H        -0.554966        -0.606216         0.515319
 H         0.888888         2.801443        -0.412364
 H        -0.558403         2.207726        -1.314746
 H        -0.625843         4.190613         1.099573
 H        -1.319606         4.290943        -0.549815
 H        -3.284458         3.413903         0.855651
 H        -3.060262         0.952812        -0.068523
