19
Iteration:  1794charge 0 multiplicity 1
 O        -3.190727         2.045246         3.006043
 C        -2.198783         1.876801         1.999769
 C        -0.767357         1.253691         2.181435
 C        -0.705463         1.243876         0.571687
 O        -0.161462         0.125377        -0.086238
 C        -0.142759         2.511965        -0.242693
 C        -1.167586         3.733311         0.195966
 C        -2.230329         2.949332         0.930425
 C        -2.218340         1.459776         0.566980
 H        -3.410028         1.203530         3.326961
 H        -0.045248         1.882353         2.617516
 H        -0.599948         0.178400         2.576505
 H         0.142401        -0.534398         0.586835
 H         0.836123         2.866713         0.166412
 H        -0.055340         2.033471        -1.221491
 H        -0.614459         4.486576         0.772918
 H        -1.715729         4.205065        -0.680064
 H        -3.249440         3.303184         1.162344
 H        -3.064850         1.191059        -0.111233
