19
Iteration:  1421
 O        -3.108648         1.921334         3.023677
 C        -2.179556         1.908599         2.021285
 C        -0.716580         1.443003         2.126286
 C        -0.681575         1.327333         0.495417
 O        -0.362232        -0.102827        -0.054811
 C        -0.056206         2.599843        -0.054810
 C        -1.119683         3.690266         0.226829
 C        -2.324270         2.998452         0.816783
 C        -2.250991         1.460924         0.513176
 H        -3.236212         1.059262         3.352204
 H        -0.106516         2.108376         2.694295
 H        -0.771620         0.388413         2.620406
 H         0.420492        -0.500838         0.324729
 H         0.981569         2.822643         0.335148
 H         0.008686         2.423764        -1.127571
 H        -0.785792         4.465774         0.916868
 H        -1.440212         4.231721        -0.709625
 H        -3.239486         3.554423         0.918104
 H        -2.935935         1.089173        -0.208324
