19
Iteration:  1582charge 0 multiplicity 1
 O        -3.132031         1.956477         3.050187
 C        -2.139498         1.978241         2.001394
 C        -0.713085         1.258763         2.123956
 C        -0.785238         1.210888         0.561152
 O        -0.304999         0.132471        -0.069817
 C        -0.024604         2.514099        -0.043270
 C        -1.137449         3.684314         0.140309
 C        -2.294104         3.001176         0.808880
 C        -2.273984         1.470455         0.605537
 H        -3.593104         1.148949         2.977742
 H         0.070912         1.846079         2.621758
 H        -0.576509         0.181715         2.417752
 H         0.677855         0.119916         0.172444
 H         0.879553         2.808319         0.522811
 H         0.106934         2.287346        -1.098893
 H        -0.916414         4.665485         0.641282
 H        -1.471070         3.825965        -0.930553
 H        -3.338050         3.350720         0.831402
 H        -3.016515         0.815183         0.146419
