19
Iteration:  3417
 O        -2.960431         1.975483         3.076260
 C        -2.161115         1.899334         2.040229
 C        -0.766059         1.287325         2.105841
 C        -0.737517         1.228541         0.587248
 O        -0.292161         0.097516         0.010463
 C        -0.108709         2.649968        -0.031254
 C        -1.188744         3.662861         0.225226
 C        -2.333620         2.907310         0.810485
 C        -2.271310         1.322196         0.434423
 H        -3.301370         2.902199         3.142366
 H        -0.154412         1.865124         2.847375
 H        -0.692330         0.234745         2.505841
 H         0.130018         0.244949        -0.872055
 H         0.979228         3.005076         0.211577
 H        -0.080925         2.382289        -1.154233
 H        -1.090435         4.573348         0.844788
 H        -1.474511         3.937312        -0.790315
 H        -3.379459         3.247593         0.574210
 H        -2.667245         0.821560        -0.388616
