19
Iteration:  3541
 O        -3.053834         1.600139         2.940557
 C        -2.129099         2.007912         1.956394
 C        -0.653103         1.555306         1.996098
 C        -0.674584         1.281480         0.469215
 O        -0.256372        -0.035862         0.264884
 C        -0.188411         2.452204        -0.255707
 C        -1.081682         3.656932         0.373828
 C        -2.380026         3.079688         0.770123
 C        -2.424148         1.564261         0.559648
 H        -3.153301         2.332844         3.610686
 H        -0.042569         2.402878         2.360163
 H        -0.443452         0.740774         2.765458
 H         0.304395         0.030246        -0.543990
 H         0.952397         2.536754        -0.167155
 H        -0.444473         2.496141        -1.397003
 H        -0.529912         4.095574         1.186623
 H        -1.234589         4.515874        -0.271248
 H        -3.314714         3.550157         0.736007
 H        -3.339910         0.958813         0.362757
