19
Iteration:  1132charge 0 multiplicity 1
 O        -3.154718         1.691672         2.934115
 C        -2.176119         1.998519         1.961896
 C        -0.742414         1.515066         2.209563
 C        -0.781341         1.352695         0.566905
 O        -0.240181         0.040640         0.047452
 C        -0.160226         2.482613        -0.214244
 C        -0.980336         3.685237         0.215186
 C        -2.323290         3.019436         0.875236
 C        -2.228505         1.507905         0.519062
 H        -2.777890         1.606014         3.880853
 H         0.052660         2.047112         2.592893
 H        -0.630394         0.463690         2.632424
 H        -0.795782        -0.714310         0.354422
 H         0.944533         2.384837        -0.105823
 H        -0.190699         2.320667        -1.306799
 H        -0.474370         4.247983         0.986640
 H        -1.319830         4.321153        -0.621611
 H        -3.273956         3.567923         0.771289
 H        -3.090258         1.180414        -0.134275
