19
Iteration:   810charge 0 multiplicity 1
 O        -3.145273         1.750831         2.998249
 C        -2.252772         1.989917         1.921730
 C        -0.807403         1.442849         2.051176
 C        -0.697922         1.286343         0.501080
 O        -0.294288        -0.037466         0.051301
 C        -0.036567         2.579274        -0.106351
 C        -1.012971         3.725767         0.296606
 C        -2.275241         3.037182         0.836993
 C        -2.330300         1.456218         0.454698
 H        -2.415708         1.542468         3.627123
 H         0.013173         2.110576         2.543944
 H        -0.776421         0.478242         2.581940
 H        -0.192090        -0.626379         0.831286
 H         0.978105         2.708353         0.384824
 H         0.270095         2.394532        -1.211904
 H        -0.601013         4.500390         1.049665
 H        -1.538511         4.420069        -0.363980
 H        -3.155012         3.645877         0.724802
 H        -3.180067         1.075464        -0.079624
