19
Iteration:  1905charge 0 multiplicity 1
 O        -3.190386         1.922252         2.946869
 C        -2.124293         2.038006         2.012901
 C        -0.729346         1.429371         2.078503
 C        -0.775917         1.206265         0.577780
 O        -0.178181         0.011674        -0.027516
 C        -0.122303         2.427340        -0.182764
 C        -1.088105         3.733457         0.273120
 C        -2.329166         3.008560         0.969568
 C        -2.297347         1.458865         0.560349
 H        -3.083929         1.029142         3.453630
 H         0.220998         1.912543         2.178638
 H        -0.813261         0.490163         2.625396
 H         0.392116         0.082630        -0.783549
 H         0.841321         2.839952         0.018639
 H        -0.237986         2.093701        -1.223373
 H        -0.638418         4.361558         1.045144
 H        -1.407514         4.322676        -0.568162
 H        -3.331282         3.473881         0.968666
 H        -3.031273         0.712439         0.465383
