19
Iteration:  1436
 O        -3.120264         1.871524         2.985425
 C        -2.115663         1.960355         1.952915
 C        -0.724280         1.333298         2.142709
 C        -0.724652         1.212634         0.631043
 O        -0.329583         0.045684         0.023275
 C        -0.157155         2.480495        -0.161724
 C        -1.090423         3.757284         0.203582
 C        -2.310893         3.012880         0.880636
 C        -2.230754         1.597643         0.498317
 H        -3.348287         0.898686         2.978896
 H         0.177380         1.883933         2.578439
 H        -0.756776         0.363304         2.538905
 H         0.524293        -0.121989         0.443387
 H         0.862855         2.736164         0.069086
 H        -0.247887         2.221519        -1.256800
 H        -0.587027         4.528099         0.879918
 H        -1.414994         4.274344        -0.725488
 H        -3.382889         3.328666         0.799543
 H        -2.968153         0.843060         0.148112
