19
Iteration:  4304charge 0 multiplicity 1
 O        -3.138364         1.755599         2.892505
 C        -2.151940         1.957774         1.951992
 C        -0.715406         1.502011         2.032602
 C        -0.761974         1.331224         0.508747
 O        -0.229849        -0.038954         0.075314
 C        -0.176610         2.475352        -0.154363
 C        -1.080014         3.659355         0.305161
 C        -2.314803         3.034314         0.991978
 C        -2.366264         1.529265         0.486392
 H        -2.656082         1.506167         3.751733
 H        -0.037160         2.190770         2.513723
 H        -0.467071         0.479686         2.536024
 H         0.713951         0.077422         0.204435
 H         0.899381         2.687758         0.286052
 H        -0.140711         2.375027        -1.225405
 H        -0.454319         4.290715         1.049334
 H        -1.407043         4.436719        -0.442726
 H        -3.303157         3.530024         0.840522
 H        -3.044676         0.959929        -0.113247
