19
Iteration:   611
 O        -3.202575         1.956296         2.965820
 C        -2.276077         2.004151         1.932766
 C        -0.777897         1.455589         2.014832
 C        -0.695964         1.265278         0.520196
 O        -0.213652        -0.023063         0.039750
 C        -0.109962         2.534046        -0.145333
 C        -0.970867         3.685063         0.515892
 C        -2.277912         2.900420         0.845014
 C        -2.271175         1.431211         0.515943
 H        -3.130036         1.070997         3.336779
 H        -0.032133         2.100360         2.582515
 H        -0.754189         0.466096         2.364068
 H        -0.263744         0.127048        -0.915721
 H         0.937332         2.491286         0.042418
 H        -0.323887         2.341353        -1.227767
 H        -0.432471         4.019299         1.401043
 H        -1.112140         4.499480        -0.189076
 H        -3.181660         3.458932         0.570607
 H        -3.071992         1.065916        -0.078801
