19
Iteration:   273
 O        -3.058030         1.761741         2.987070
 C        -2.267495         2.001563         1.986499
 C        -0.845416         1.469590         2.076657
 C        -0.740265         1.294427         0.527189
 O        -0.171907         0.037311         0.109770
 C        -0.013768         2.500009        -0.062974
 C        -1.081836         3.638363         0.287162
 C        -2.350733         2.968239         0.827467
 C        -2.241474         1.518315         0.395272
 H        -3.594310         2.582429         3.242875
 H        -0.130230         2.238728         2.429281
 H        -0.810785         0.622375         2.656195
 H        -0.831158        -0.582573        -0.203182
 H         1.030104         2.613802         0.255379
 H         0.020781         2.211306        -1.143682
 H        -0.589092         4.143578         1.113012
 H        -1.275902         4.268630        -0.536130
 H        -3.380155         3.405625         0.796915
 H        -2.841144         0.899427        -0.242488
