19
Iteration:  1704
 O        -3.257660         1.954952         2.933400
 C        -2.162699         1.865398         2.031879
 C        -0.670779         1.453671         2.168967
 C        -0.705761         1.345804         0.540780
 O        -0.339884        -0.005329         0.066773
 C        -0.154382         2.575451        -0.258861
 C        -1.032961         3.629532         0.295155
 C        -2.280855         2.910731         0.899156
 C        -2.200418         1.439649         0.509025
 H        -3.224236         1.102347         3.331044
 H        -0.065534         2.109094         2.740396
 H        -0.473057         0.372112         2.445322
 H         0.515688         0.132084        -0.330093
 H         0.899276         2.942252        -0.123390
 H        -0.310175         2.428349        -1.340405
 H        -0.408014         4.272619         0.933685
 H        -1.279297         4.359720        -0.529422
 H        -3.216149         3.453996         0.951179
 H        -2.974872         0.869620         0.050824
