19
Iteration:  2320
 O        -2.954816         2.078769         3.134815
 C        -2.107287         1.896591         1.964687
 C        -0.669374         1.317138         2.006041
 C        -0.766093         1.259262         0.459444
 O        -0.348786        -0.021972        -0.043478
 C        -0.069376         2.713791        -0.012331
 C        -1.245829         3.721968         0.230184
 C        -2.389059         2.902232         0.879937
 C        -2.309153         1.369124         0.460217
 H        -2.785297         1.439120         3.864184
 H         0.301466         1.662914         2.321124
 H        -0.836015         0.235447         2.317906
 H         0.329627        -0.398551         0.510332
 H         0.865368         2.670355         0.490485
 H        -0.024134         2.482157        -1.056463
 H        -0.931400         4.565860         0.794056
 H        -1.632491         4.047899        -0.734947
 H        -3.477156         3.227144         0.926118
 H        -2.861613         0.886855        -0.392289
