19
Iteration:  1930charge 0 multiplicity 1
 O        -3.107383         2.066710         3.064181
 C        -2.185794         1.929226         1.989930
 C        -0.713304         1.358148         2.147419
 C        -0.747207         1.237836         0.581818
 O        -0.231660         0.124887        -0.143585
 C        -0.133962         2.478028        -0.101764
 C        -1.136270         3.630701         0.255276
 C        -2.211176         2.873062         0.799894
 C        -2.332440         1.417129         0.611494
 H        -3.531218         1.177381         3.210200
 H        -0.040130         2.048502         2.720743
 H        -0.779251         0.391687         2.564349
 H         0.667398         0.186020        -0.546390
 H         0.803384         2.843385         0.258047
 H        -0.072149         2.308084        -1.200539
 H        -1.073151         4.435351         1.000884
 H        -1.413477         4.043290        -0.691635
 H        -3.116304         3.468770         0.875533
 H        -3.078360         0.827213         0.033739
