19
Iteration:  1874charge 0 multiplicity 1
 O        -3.037706         1.837337         3.003606
 C        -2.216458         1.854025         1.958573
 C        -0.725247         1.458163         2.068103
 C        -0.774826         1.344644         0.475506
 O        -0.293663         0.051066         0.276477
 C        -0.149062         2.536794        -0.290113
 C        -1.034376         3.701294         0.346373
 C        -2.304854         2.952589         0.910229
 C        -2.262166         1.509036         0.392240
 H        -3.079021         1.018529         3.432055
 H         0.069272         2.202036         2.421644
 H        -0.609417         0.466087         2.455887
 H        -0.679538        -0.396918        -0.551625
 H         0.879457         2.821301        -0.137632
 H        -0.280134         2.284559        -1.379080
 H        -0.522077         4.147106         1.215143
 H        -1.224501         4.493495        -0.346189
 H        -3.347607         3.294072         0.815413
 H        -2.880042         1.059433        -0.364612
