19
Iteration:   993charge 0 multiplicity 1
 O        -3.195860         1.807228         3.016342
 C        -2.111060         2.002018         1.976438
 C        -0.744339         1.370233         2.110500
 C        -0.670906         1.235815         0.546985
 O        -0.304478         0.037524        -0.027225
 C        -0.160874         2.586883        -0.219716
 C        -1.001699         3.703627         0.257551
 C        -2.319071         2.972209         0.972424
 C        -2.231319         1.468328         0.542721
 H        -3.716042         2.590405         2.935208
 H         0.133047         1.884918         2.601955
 H        -0.929104         0.382148         2.570577
 H         0.240751        -0.576581         0.527714
 H         0.895957         2.750525        -0.025698
 H        -0.069396         2.443594        -1.287845
 H        -0.594408         4.517023         0.851256
 H        -1.391328         4.194144        -0.687324
 H        -3.359054         3.263983         0.848192
 H        -2.915455         0.840181        -0.038995
