19
Iteration:   278charge 0 multiplicity 1
 O        -3.116086         1.799865         3.033070
 C        -2.261199         1.988866         1.982319
 C        -0.799310         1.515148         2.090502
 C        -0.755782         1.288436         0.543681
 O        -0.178531         0.077014         0.058002
 C        -0.008743         2.471766        -0.056626
 C        -1.067642         3.596377         0.311957
 C        -2.343513         2.931281         0.831621
 C        -2.211752         1.478724         0.381295
 H        -3.697514         2.551893         3.063200
 H         0.087780         2.098294         2.458476
 H        -0.907877         0.439972         2.621254
 H        -0.927592        -0.530935        -0.179009
 H         1.046446         2.753392         0.181143
 H        -0.112465         2.271917        -1.135261
 H        -0.635953         4.377988         1.011627
 H        -1.320442         4.362332        -0.502224
 H        -3.241300         3.515370         0.630785
 H        -2.775032         0.756566        -0.256019
