19
Iteration:  4451charge 0 multiplicity 1
 O        -3.174595         1.777216         2.932894
 C        -2.128282         1.914449         1.952995
 C        -0.610491         1.574231         1.979943
 C        -0.685401         1.278426         0.463494
 O        -0.401611         0.007097         0.136383
 C        -0.096850         2.555623        -0.220859
 C        -1.035809         3.695024         0.446302
 C        -2.346977         2.917802         0.934415
 C        -2.315765         1.510293         0.493600
 H        -3.226685         0.848924         3.088807
 H         0.131032         2.352515         2.258483
 H        -0.507978         0.727820         2.566082
 H         0.598622        -0.102444         0.160021
 H         0.837762         2.633850         0.190062
 H        -0.085163         2.454594        -1.288710
 H        -0.568405         4.334376         1.156900
 H        -1.320352         4.246810        -0.485007
 H        -3.360978         3.417462         0.893779
 H        -3.233280         1.063909         0.114890
