19
Iteration:   530
 O        -3.207621         1.824836         2.936952
 C        -2.165724         1.936431         1.989258
 C        -0.667370         1.482234         2.193696
 C        -0.674891         1.206794         0.544110
 O        -0.333013         0.109704        -0.002489
 C        -0.032411         2.474308        -0.041126
 C        -1.053898         3.646758         0.301147
 C        -2.330364         2.951687         0.832371
 C        -2.209108         1.482311         0.524693
 H        -4.056755         2.134378         2.520958
 H         0.006877         2.107795         2.722996
 H        -0.782354         0.510001         2.851068
 H        -0.531440         0.246079        -0.930083
 H         1.122730         2.519143         0.137864
 H        -0.025741         2.247621        -1.189521
 H        -0.696439         4.385946         1.051717
 H        -1.136690         4.264450        -0.661762
 H        -3.288115         3.507708         0.815156
 H        -2.934651         0.831738        -0.029538
