19
Iteration:  1231charge 0 multiplicity 1
 O        -3.202801         1.976995         3.008018
 C        -2.209556         2.014284         1.987117
 C        -0.754252         1.386099         2.158445
 C        -0.742828         1.213013         0.514579
 O        -0.107456         0.086034        -0.141525
 C        -0.109447         2.486596        -0.128240
 C        -1.041078         3.597645         0.251497
 C        -2.298763         3.013535         0.919488
 C        -2.320583         1.482798         0.592927
 H        -3.044942         1.095659         3.476495
 H         0.098227         1.804311         2.803953
 H        -0.994127         0.301070         2.426413
 H        -0.554606        -0.773425         0.148892
 H         0.933182         2.779189         0.146509
 H        -0.013053         2.438725        -1.228842
 H        -0.642380         4.378065         0.907027
 H        -1.344533         4.146322        -0.637504
 H        -3.285786         3.500679         0.837623
 H        -3.047261         0.884472         0.063146
