19
Iteration:   843charge 0 multiplicity 1
 O        -3.115026         1.926151         2.966008
 C        -2.209059         1.988374         1.974117
 C        -0.699739         1.368246         2.145095
 C        -0.743197         1.241581         0.578643
 O        -0.246634         0.127913        -0.015487
 C        -0.044647         2.523259        -0.073530
 C        -1.096032         3.661221         0.242895
 C        -2.261051         2.910159         0.858605
 C        -2.308242         1.463128         0.452143
 H        -3.323380         1.025884         3.127498
 H         0.012459         2.037560         2.732499
 H        -0.717091         0.402725         2.653193
 H        -0.969142        -0.551213         0.039174
 H         0.903052         2.787685         0.478950
 H        -0.001488         2.259162        -1.187140
 H        -0.638823         4.370871         1.039941
 H        -1.582801         4.338067        -0.486056
 H        -3.173927         3.483634         0.888924
 H        -2.953079         0.995842        -0.272778
