19
Iteration:  2883
 O        -3.044442         1.966911         3.104545
 C        -2.164359         1.839530         2.007848
 C        -0.756515         1.341720         2.097009
 C        -0.719322         1.250494         0.497336
 O        -0.217230         0.010300         0.034112
 C        -0.138441         2.644901        -0.165769
 C        -1.160302         3.672456         0.324149
 C        -2.336483         2.847549         0.881269
 C        -2.244149         1.438631         0.404915
 H        -3.333028         2.936080         3.170913
 H         0.100247         1.849400         2.573779
 H        -0.660169         0.340776         2.472981
 H        -0.342682         0.074889        -0.926715
 H         0.887005         2.841578         0.266764
 H        -0.050372         2.628525        -1.283803
 H        -0.657243         4.393022         0.998312
 H        -1.664524         4.384695        -0.313809
 H        -3.350477         3.363267         0.831330
 H        -3.082104         0.995992        -0.198400
