19
Iteration:   435charge 0 multiplicity 1
 O        -3.380232         1.882731         2.970546
 C        -2.219235         1.928910         1.968741
 C        -0.736161         1.383888         2.121770
 C        -0.693747         1.277817         0.551048
 O        -0.205660         0.069433         0.056355
 C        -0.177408         2.469507        -0.127085
 C        -1.006580         3.673804         0.307973
 C        -2.200080         2.944053         0.807963
 C        -2.183429         1.506035         0.502585
 H        -2.979791         2.026794         3.815521
 H        -0.018517         2.101368         2.671394
 H        -0.719200         0.318861         2.509324
 H         0.408140         0.210100        -0.701986
 H         0.877418         2.570766        -0.119569
 H        -0.405225         2.370006        -1.191405
 H        -0.523194         4.059889         1.227187
 H        -1.139194         4.366499        -0.568787
 H        -3.191744         3.407489         0.842108
 H        -2.925319         1.001735        -0.146091
