19
Iteration:  2096charge 0 multiplicity 1
 O        -2.911580         1.805209         3.169722
 C        -2.202081         1.946104         1.922831
 C        -0.805636         1.470914         2.107238
 C        -0.813321         1.229170         0.513942
 O        -0.290082         0.014700         0.037215
 C        -0.043199         2.543173        -0.166527
 C        -1.076136         3.659467         0.243528
 C        -2.359374         2.949233         0.884767
 C        -2.327197         1.454622         0.469086
 H        -3.665895         2.343528         3.091968
 H        -0.287730         2.407908         2.513504
 H        -0.804006         0.549773         2.662103
 H         0.421351         0.141494        -0.661279
 H         0.996144         2.645074         0.251135
 H         0.134460         2.484561        -1.276813
 H        -0.812499         4.583066         0.825637
 H        -1.610699         4.063160        -0.637059
 H        -3.293206         3.546672         0.840804
 H        -2.904364         0.949328        -0.245836
