19
Iteration:  4895
 O        -3.052490         1.869673         3.079731
 C        -2.155327         1.934600         1.972949
 C        -0.738375         1.322499         2.129245
 C        -0.740619         1.236630         0.610604
 O        -0.306770         0.022727         0.029601
 C        -0.021236         2.652917        -0.049326
 C        -1.161944         3.718840         0.213398
 C        -2.374092         2.935985         0.771430
 C        -2.217749         1.472486         0.433934
 H        -3.089199         0.939904         3.124316
 H        -0.009196         2.011604         2.577830
 H        -1.059463         0.345747         2.723403
 H        -0.319951         0.207781        -0.910438
 H         0.871319         2.955171         0.457653
 H         0.190209         2.324494        -1.128148
 H        -0.817172         4.680699         0.820155
 H        -1.539435         4.271484        -0.651903
 H        -3.336814         3.429480         1.031431
 H        -2.808091         1.144023        -0.410209
