19
Iteration:  3950
 O        -3.078910         1.805017         2.952250
 C        -2.177889         1.919461         1.926256
 C        -0.799094         1.321466         2.181219
 C        -0.685097         1.318377         0.566392
 O        -0.303777         0.042205         0.018011
 C        -0.138509         2.552080        -0.108627
 C        -1.131822         3.724394         0.214890
 C        -2.294248         2.937373         0.861935
 C        -2.193817         1.519164         0.542591
 H        -3.114478         2.738463         3.332983
 H        -0.216095         1.902998         2.910451
 H        -0.759340         0.317821         2.391637
 H         0.634588        -0.168086        -0.186730
 H         0.865058         2.673821         0.203193
 H        -0.140638         2.305305        -1.152514
 H        -0.785273         4.472314         0.918274
 H        -1.704527         4.331369        -0.512008
 H        -3.353407         3.331079         0.862724
 H        -2.839156         0.903666        -0.146875
