19
Iteration:  3275charge 0 multiplicity 1
 O        -3.048574         1.875792         3.165969
 C        -2.234451         1.906013         2.048118
 C        -0.719377         1.473504         2.062316
 C        -0.788676         1.275244         0.550073
 O        -0.220246         0.071634         0.007744
 C        -0.099348         2.507570        -0.149375
 C        -1.060406         3.665427         0.151907
 C        -2.311624         2.947023         0.858662
 C        -2.255228         1.353902         0.558832
 H        -4.004039         2.131809         3.009592
 H        -0.023874         2.155181         2.622324
 H        -0.713825         0.504017         2.530764
 H        -0.404974         0.293327        -0.920388
 H         0.898096         2.665535         0.337942
 H         0.076897         2.639784        -1.247805
 H        -0.754077         4.579425         0.640128
 H        -1.462105         3.931296        -0.810221
 H        -3.254920         3.394636         0.632591
 H        -2.998343         0.873034        -0.162497
