19
Iteration:  2364
 O        -2.983496         1.957249         3.089046
 C        -2.160022         2.013531         2.029647
 C        -0.710864         1.420827         2.032371
 C        -0.772006         1.243437         0.499027
 O        -0.269472         0.047167        -0.063535
 C        -0.188647         2.469285        -0.180981
 C        -1.052492         3.680246         0.316775
 C        -2.406907         2.926042         0.801741
 C        -2.303511         1.418494         0.607740
 H        -3.128821         1.047239         3.369975
 H         0.022089         2.132555         2.458681
 H        -0.682413         0.403382         2.566351
 H         0.679318         0.185130        -0.025270
 H         0.840505         2.681310         0.031996
 H        -0.489049         2.400638        -1.219113
 H        -0.839646         4.271901         1.176214
 H        -1.252231         4.332832        -0.515565
 H        -3.418713         3.410483         0.797658
 H        -3.130296         0.883426         0.036689
