19
Iteration:  1633
 O        -3.045474         1.847737         3.078866
 C        -2.231993         1.881292         1.919617
 C        -0.741435         1.550157         2.050104
 C        -0.771746         1.298085         0.501092
 O        -0.368043         0.064190         0.109576
 C        -0.182957         2.566772        -0.148594
 C        -0.943277         3.661916         0.342892
 C        -2.259199         2.896209         0.811957
 C        -2.282897         1.430316         0.441203
 H        -3.833164         1.351138         2.999108
 H         0.030433         2.325640         2.435605
 H        -0.612539         0.634506         2.616750
 H         0.529853        -0.183457         0.240964
 H         0.864308         2.571557         0.118443
 H        -0.218787         2.458635        -1.276638
 H        -0.634907         4.261473         1.213839
 H        -1.138505         4.406512        -0.408623
 H        -3.262417         3.251477         0.686737
 H        -2.731236         0.794361        -0.294035
