19
Iteration:  3030charge 0 multiplicity 1
 O        -3.029783         1.840584         3.257915
 C        -2.290843         1.856198         2.011864
 C        -0.870877         1.329780         2.134038
 C        -0.731128         1.283655         0.529437
 O        -0.066380         0.138152         0.042519
 C        -0.142873         2.518122        -0.272015
 C        -1.095901         3.660142         0.186692
 C        -2.310344         2.977893         0.857304
 C        -2.278178         1.457573         0.434364
 H        -3.427095         2.700985         3.285827
 H        -0.234998         1.983150         2.782866
 H        -0.822443         0.275081         2.559892
 H        -0.061231         0.282088        -0.950824
 H         0.915236         2.721452        -0.079575
 H        -0.412355         2.198713        -1.322080
 H        -0.555615         4.432149         0.727484
 H        -1.464541         4.129224        -0.740875
 H        -3.207131         3.596972         0.791319
 H        -3.120307         0.891278        -0.063577
