19
Iteration:  4006
 O        -3.018789         1.950677         2.942313
 C        -2.134361         1.995651         1.940150
 C        -0.776698         1.281299         2.151505
 C        -0.759211         1.183818         0.586334
 O        -0.144203         0.024351        -0.111386
 C        -0.149320         2.583141         0.009030
 C        -1.145865         3.663154         0.327307
 C        -2.402507         2.939524         0.779243
 C        -2.327326         1.444845         0.541118
 H        -3.421716         2.765953         3.101564
 H         0.088850         1.767566         2.612910
 H        -1.056055         0.350946         2.656398
 H         0.571772         0.413084        -0.612909
 H         0.884261         2.670316         0.462238
 H         0.093547         2.514985        -1.028863
 H        -0.892932         4.326348         1.183509
 H        -1.532753         4.170421        -0.587808
 H        -3.349609         3.548131         0.982060
 H        -3.011242         0.646038         0.275968
