19
Iteration:  1110charge 0 multiplicity 1
 O        -3.257259         1.699245         2.920191
 C        -2.181145         1.906247         2.018214
 C        -0.700438         1.458077         2.061269
 C        -0.696625         1.306940         0.591922
 O        -0.236935         0.020379         0.062471
 C        -0.130594         2.531811        -0.238240
 C        -1.068558         3.695814         0.211773
 C        -2.184563         3.009891         0.922009
 C        -2.230578         1.580476         0.627046
 H        -3.295117         2.447145         3.503922
 H         0.028217         2.089379         2.474706
 H        -0.608628         0.467260         2.593942
 H        -0.940636        -0.627224        -0.095995
 H         0.948936         2.756628        -0.328635
 H        -0.366834         2.321633        -1.301758
 H        -0.536452         4.359322         0.896779
 H        -1.398344         4.234945        -0.688010
 H        -3.135871         3.554048         0.927701
 H        -3.055100         0.884274         0.330390
