19
Iteration:    36charge 0 multiplicity 1
 O        -3.037450         1.867564         3.113995
 C        -2.330854         1.927954         1.909433
 C        -0.750783         1.507338         1.989077
 C        -0.738048         1.265554         0.535115
 O        -0.043883         0.094827         0.195958
 C        -0.205845         2.498037        -0.183716
 C        -1.029103         3.638166         0.306412
 C        -2.403546         2.950066         0.654523
 C        -2.300391         1.432707         0.519009
 H        -3.885054         1.412308         3.058618
 H        -0.067724         2.353168         2.317448
 H        -0.614581         0.657418         2.697271
 H        -0.030609        -0.499761         0.943557
 H         0.849177         2.538166        -0.048159
 H        -0.337064         2.384043        -1.199115
 H        -0.595628         4.150945         1.191506
 H        -1.101829         4.436887        -0.449676
 H        -3.396807         3.434432         0.405107
 H        -2.987900         0.976872        -0.267993
