19
Iteration:  3013charge 0 multiplicity 1
 O        -2.952583         1.723979         3.185653
 C        -2.267493         2.021090         1.977104
 C        -0.800647         1.462946         2.079582
 C        -0.735700         1.270919         0.556898
 O        -0.092911         0.048209         0.058984
 C        -0.233314         2.449673        -0.186382
 C        -1.057419         3.696872         0.200264
 C        -2.366348         2.996207         0.793482
 C        -2.306027         1.503414         0.545967
 H        -3.790769         2.224334         3.266339
 H        -0.003287         2.023959         2.579758
 H        -1.015229         0.496646         2.451250
 H        -0.122812         0.102397        -0.945031
 H         0.843511         2.623388         0.036146
 H        -0.216526         2.313186        -1.254200
 H        -0.598736         4.245461         1.076909
 H        -1.368740         4.344568        -0.651906
 H        -3.467942         3.222148         0.571790
 H        -2.896515         1.107177        -0.270555
