19
Iteration:  1305
 O        -3.170680         1.821794         2.980071
 C        -2.178393         1.995841         1.972713
 C        -0.659393         1.515119         2.065540
 C        -0.752627         1.263776         0.511673
 O        -0.243312        -0.075421         0.145822
 C        -0.194740         2.572625        -0.213695
 C        -0.965884         3.661197         0.399232
 C        -2.299858         3.006898         0.824828
 C        -2.280334         1.489158         0.525675
 H        -3.392408         0.937691         3.154647
 H         0.174455         2.259328         2.293535
 H        -0.683919         0.636166         2.577965
 H        -0.559709        -0.142157        -0.751510
 H         0.873015         2.496400        -0.247975
 H        -0.428946         2.377600        -1.294716
 H        -0.521884         4.260472         1.226263
 H        -1.276024         4.393578        -0.345146
 H        -3.120653         3.727622         0.711654
 H        -3.043746         0.933113         0.002029
