19
Iteration:  3633
 O        -3.028292         1.898397         3.039970
 C        -2.169691         1.998714         1.950637
 C        -0.732827         1.346919         2.120602
 C        -0.685018         1.265808         0.528738
 O        -0.188522         0.028707        -0.049204
 C        -0.141301         2.550384         0.005958
 C        -1.167474         3.663011         0.198081
 C        -2.435870         2.941358         0.756638
 C        -2.309383         1.391009         0.599015
 H        -2.981078         2.673330         3.556524
 H         0.011204         2.027914         2.614171
 H        -0.816491         0.442752         2.675443
 H        -0.282634         0.115686        -1.017948
 H         0.734607         2.776787         0.627470
 H         0.436580         2.343784        -0.990984
 H        -0.827062         4.411926         0.948040
 H        -1.248583         4.222051        -0.748824
 H        -3.453827         3.505400         0.832391
 H        -2.984425         0.631158         0.097112
