19
Iteration:  4522
 O        -3.143693         2.017914         3.036640
 C        -2.206178         1.941504         2.006766
 C        -0.763906         1.288384         2.106918
 C        -0.702477         1.211970         0.472494
 O        -0.151001         0.036249        -0.069428
 C        -0.113305         2.558938        -0.137529
 C        -1.153025         3.722108         0.323726
 C        -2.311999         2.932532         0.896505
 C        -2.341772         1.471585         0.497844
 H        -3.228112         1.212403         3.510165
 H         0.017215         1.941390         2.544977
 H        -0.785725         0.175526         2.455180
 H         0.841354        -0.006864         0.008238
 H         1.013451         2.714201         0.251398
 H        -0.140960         2.393660        -1.344731
 H        -0.576045         4.431904         1.098586
 H        -1.528163         4.361115        -0.492850
 H        -3.261684         3.356359         0.881786
 H        -3.109546         0.913887        -0.029521
