19
Iteration:   100
 O        -3.238976         1.787396         2.959942
 C        -2.141042         1.979842         2.023363
 C        -0.723520         1.503851         2.171500
 C        -0.740133         1.266703         0.575783
 O        -0.107854         0.127144        -0.006604
 C        -0.091137         2.538170        -0.155784
 C        -1.082712         3.588318         0.137660
 C        -2.353016         2.916405         0.796973
 C        -2.246230         1.428469         0.667102
 H        -3.347429         2.675314         3.282334
 H        -0.056733         2.181830         2.494214
 H        -0.640956         0.636703         2.808619
 H        -0.771622        -0.587235        -0.064620
 H         0.863034         2.670197         0.361205
 H        -0.023427         2.344396        -1.253686
 H        -0.716153         4.414083         0.731847
 H        -1.454733         4.002317        -0.784302
 H        -3.344184         3.477164         0.790573
 H        -2.998865         0.766198         0.142982
