19
Iteration:  1345
 O        -3.209814         2.041530         3.044003
 C        -2.250459         1.916113         2.024635
 C        -0.727585         1.301228         2.073066
 C        -0.717099         1.275640         0.566444
 O        -0.109509         0.039279         0.055907
 C        -0.254815         2.464274        -0.320980
 C        -1.008549         3.640160         0.342073
 C        -2.264517         2.972833         0.854112
 C        -2.318523         1.533483         0.551268
 H        -3.452195         1.062269         3.255651
 H         0.124065         1.658451         2.658418
 H        -0.690646         0.171933         2.440584
 H         0.649920         0.265527        -0.554814
 H         0.851730         2.615442        -0.218047
 H        -0.572327         2.500990        -1.368174
 H        -0.427213         4.248493         1.068719
 H        -1.272655         4.348186        -0.495349
 H        -3.200367         3.526514         1.014302
 H        -2.986685         0.950331        -0.117547
