19
Iteration:   619charge 0 multiplicity 1
 O        -3.252910         1.973887         2.901221
 C        -2.236502         2.020447         2.016456
 C        -0.736496         1.444186         2.031704
 C        -0.709127         1.230369         0.519243
 O        -0.222947         0.001690        -0.028927
 C        -0.112117         2.519155        -0.093700
 C        -0.965567         3.595563         0.492038
 C        -2.334180         2.974971         0.847674
 C        -2.242328         1.421494         0.571450
 H        -2.934905         1.157192         3.352415
 H        -0.001633         2.105670         2.452560
 H        -0.628745         0.444052         2.573257
 H        -0.317607        -0.103249        -0.969935
 H         0.954933         2.813442         0.094053
 H        -0.262959         2.639065        -1.236348
 H        -0.510184         3.972538         1.400733
 H        -1.130240         4.385150        -0.295639
 H        -3.194680         3.519512         0.498894
 H        -2.911161         0.864296        -0.079487
