19
Iteration:  4658charge 0 multiplicity 1
 O        -3.119065         1.919509         3.079083
 C        -2.249067         1.892603         1.916533
 C        -0.780509         1.504257         2.142735
 C        -0.660413         1.293504         0.543096
 O        -0.273552         0.029630         0.052935
 C        -0.167254         2.507323        -0.235099
 C        -1.072237         3.640872         0.421236
 C        -2.287814         2.916954         0.817440
 C        -2.206803         1.485615         0.432059
 H        -2.975339         1.008445         3.519756
 H        -0.099343         2.126528         2.752273
 H        -0.589233         0.501909         2.461078
 H         0.201380         0.141721        -0.755850
 H         0.984494         2.810078        -0.239262
 H        -0.551452         2.394160        -1.265068
 H        -0.545653         4.029543         1.261510
 H        -1.343383         4.410168        -0.341581
 H        -3.364240         3.377557         0.665146
 H        -2.929716         1.000839        -0.256912
