19
Iteration:  4029
 O        -3.157153         1.848169         3.037531
 C        -2.194379         1.877638         2.000349
 C        -0.777205         1.311783         2.103807
 C        -0.664342         1.326176         0.577133
 O        -0.264814         0.101421         0.062839
 C        -0.193425         2.562419        -0.144093
 C        -1.063196         3.730100         0.245275
 C        -2.291549         2.898289         0.851604
 C        -2.188833         1.456939         0.483026
 H        -3.269359         2.863208         3.097580
 H         0.078630         1.739608         2.658268
 H        -0.868172         0.180342         2.267514
 H         0.350434         0.107953        -0.695828
 H         0.952292         2.606885         0.051173
 H        -0.221962         2.415664        -1.195825
 H        -0.763677         4.299509         1.152289
 H        -1.308828         4.307786        -0.689527
 H        -3.349817         3.232912         0.762858
 H        -2.955860         0.966821        -0.047635
