19
Iteration:  1048charge 0 multiplicity 1
 O        -2.938054         1.964965         3.215564
 C        -2.268016         1.938769         1.896461
 C        -0.864450         1.446467         2.081069
 C        -0.753812         1.209810         0.495484
 O        -0.122827         0.066142        -0.059365
 C        -0.095848         2.507906        -0.129728
 C        -1.069242         3.633103         0.386862
 C        -2.378528         2.921481         0.712554
 C        -2.292986         1.465371         0.448920
 H        -3.848079         2.193110         3.105389
 H        -0.045756         2.007249         2.634978
 H        -1.148079         0.408752         2.454027
 H        -0.287731        -0.832934         0.301860
 H         0.873228         2.578165         0.396465
 H        -0.053889         2.473369        -1.228669
 H        -0.823778         4.107048         1.360145
 H        -1.199332         4.567356        -0.223778
 H        -3.364938         3.398067         0.604200
 H        -3.019553         1.008392        -0.243128
