19
Iteration:  1093
 O        -3.177987         1.790347         2.897873
 C        -2.099372         1.960535         2.045591
 C        -0.613291         1.438170         2.188459
 C        -0.736781         1.275815         0.443226
 O        -0.209002         0.049711         0.066024
 C        -0.163728         2.481055        -0.257769
 C        -1.063690         3.678869         0.317246
 C        -2.330734         2.967268         0.976042
 C        -2.316549         1.481502         0.536898
 H        -3.588039         2.665006         2.949247
 H         0.060134         2.181370         2.797333
 H        -0.629540         0.369180         2.538803
 H        -1.022489        -0.387200        -0.200161
 H         0.864435         2.647603         0.137847
 H        -0.140862         2.376675        -1.358520
 H        -0.418644         4.433980         0.846296
 H        -1.345692         4.296024        -0.600383
 H        -3.317429         3.445736         1.033828
 H        -2.954733         1.002565        -0.197117
