19
Iteration:  1949
 O        -2.985442         2.097941         3.096751
 C        -2.208916         1.873748         1.988738
 C        -0.726497         1.300135         2.106501
 C        -0.737875         1.279429         0.501838
 O        -0.317431         0.060641        -0.053237
 C        -0.078130         2.620160        -0.070806
 C        -1.131618         3.677742         0.214309
 C        -2.447179         2.864914         0.863134
 C        -2.202252         1.397676         0.469499
 H        -3.684410         1.379284         3.324659
 H        -0.159354         2.025414         2.682849
 H        -0.853494         0.270334         2.466240
 H         0.630742        -0.058462         0.101977
 H         0.882421         2.712784         0.438712
 H         0.082395         2.513452        -1.157416
 H        -0.590595         4.313667         0.921005
 H        -1.351389         4.156511        -0.737380
 H        -3.519364         3.129202         0.876653
 H        -2.782621         0.743023        -0.130952
