19
Iteration:  4483charge 0 multiplicity 1
 O        -3.121559         1.849559         3.001693
 C        -2.148914         1.911115         1.973216
 C        -0.731172         1.455934         2.167519
 C        -0.669209         1.258612         0.558801
 O        -0.282445         0.020887         0.003191
 C        -0.212429         2.542129        -0.215272
 C        -1.017902         3.720606         0.357577
 C        -2.307865         2.965191         0.817108
 C        -2.293636         1.477736         0.518509
 H        -3.550959         0.961379         2.853066
 H         0.043488         2.085099         2.622167
 H        -0.790942         0.556313         2.724138
 H         0.624867         0.040123        -0.332229
 H         0.801165         2.760752        -0.091341
 H        -0.328596         2.430703        -1.223065
 H        -0.578281         4.288995         1.095303
 H        -1.273199         4.468652        -0.417653
 H        -3.334717         3.424163         0.841202
 H        -3.156607         0.959125         0.085753
