19
Iteration:  2369
 O        -3.028057         1.921869         3.080582
 C        -2.136946         2.066525         2.056031
 C        -0.712363         1.418376         2.056478
 C        -0.769405         1.246806         0.507985
 O        -0.253083         0.053155        -0.070966
 C        -0.240199         2.476999        -0.204859
 C        -1.028522         3.664039         0.326674
 C        -2.369299         2.911258         0.757408
 C        -2.322075         1.446465         0.651386
 H        -3.212785         0.974452         3.252968
 H         0.154578         2.083238         2.288993
 H        -0.521311         0.531809         2.596374
 H         0.733930         0.202045        -0.173276
 H         0.883591         2.500579        -0.017814
 H        -0.480989         2.302495        -1.294183
 H        -0.845773         4.214337         1.308752
 H        -1.329352         4.364489        -0.493647
 H        -3.329497         3.361612         0.670143
 H        -3.190815         0.982030         0.257967
