19
Iteration:  2342charge 0 multiplicity 1
 O        -2.901401         2.082295         3.113036
 C        -2.193115         1.819558         1.949111
 C        -0.790675         1.351333         2.076640
 C        -0.693946         1.308204         0.473292
 O        -0.348736        -0.001095        -0.003603
 C        -0.170499         2.618552        -0.156582
 C        -1.209782         3.664526         0.289222
 C        -2.294513         2.853192         0.919403
 C        -2.264472         1.471688         0.347053
 H        -2.699980         1.395418         3.794678
 H        -0.061742         2.067839         2.508549
 H        -0.579707         0.311168         2.473121
 H         0.527718        -0.328214         0.340300
 H         0.658523         2.829682         0.476834
 H         0.029375         2.439036        -1.203287
 H        -0.894822         4.385769         1.012208
 H        -1.814468         4.173980        -0.423477
 H        -3.281520         3.396194         1.007043
 H        -3.058835         0.869796        -0.159764
