19
Iteration:  3526
 O        -3.121854         1.656438         2.885164
 C        -2.132451         1.943446         1.967646
 C        -0.616164         1.623199         2.025391
 C        -0.780067         1.257231         0.537439
 O        -0.311355        -0.096328         0.296901
 C        -0.207190         2.640755        -0.358039
 C        -1.006843         3.690157         0.350180
 C        -2.361903         2.960315         0.861153
 C        -2.317879         1.513258         0.547028
 H        -2.966579         2.126842         3.664188
 H         0.171911         2.348899         2.127239
 H        -0.434771         0.666103         2.564259
 H         0.287387        -0.225985        -0.474880
 H         0.855850         2.928759        -0.281879
 H        -0.536752         2.453092        -1.303734
 H        -0.549050         4.101010         1.283765
 H        -1.194960         4.484351        -0.384267
 H        -3.228902         3.658702         1.073638
 H        -2.991327         0.820076         0.015780
