19
Iteration:  3450
 O        -3.044132         1.916244         3.085021
 C        -2.099095         2.034441         1.988550
 C        -0.748052         1.335552         1.975209
 C        -0.723143         1.221877         0.504582
 O        -0.078149         0.037408         0.034950
 C        -0.112473         2.567887         0.003112
 C        -1.231117         3.586169         0.225709
 C        -2.400647         2.949410         0.860311
 C        -2.393196         1.448719         0.495121
 H        -3.219498         2.862835         3.469901
 H         0.099932         1.847936         2.489867
 H        -0.900396         0.266944         2.277222
 H        -0.218293        -0.105663        -0.896765
 H         0.859168         2.669813         0.634632
 H         0.138203         2.497278        -1.102454
 H        -0.885399         4.473103         0.806682
 H        -1.493502         4.073941        -0.703551
 H        -3.408002         3.442103         0.837717
 H        -3.096131         0.857743         0.005143
