19
Iteration:  2284charge 0 multiplicity 1
 O        -2.990892         1.934749         3.075974
 C        -2.151157         2.036557         2.035025
 C        -0.646221         1.401506         2.194425
 C        -0.797009         1.263755         0.593489
 O        -0.269576         0.130795        -0.230189
 C        -0.172299         2.440316        -0.096629
 C        -1.106097         3.651005         0.133963
 C        -2.377567         2.939088         0.863487
 C        -2.346621         1.413485         0.645355
 H        -3.338224         1.038284         2.971285
 H         0.317126         1.843685         2.588518
 H        -0.904865         0.462525         2.799560
 H         0.649702        -0.037496         0.050161
 H         0.913201         2.624271         0.121409
 H        -0.092103         2.165235        -1.151652
 H        -0.839908         4.517434         0.733473
 H        -1.546071         4.025780        -0.816793
 H        -3.249772         3.568166         0.896759
 H        -3.159229         0.882295         0.206250
