19
Iteration:  1446
 O        -3.112313         1.838943         2.922296
 C        -2.096157         2.023347         2.031468
 C        -0.734603         1.313225         2.105537
 C        -0.780467         1.293288         0.570509
 O        -0.284319         0.100742         0.079470
 C        -0.218707         2.478645        -0.200997
 C        -1.042734         3.678853         0.241292
 C        -2.256885         3.041832         0.867135
 C        -2.254587         1.476636         0.546246
 H        -3.451664         0.949272         2.842530
 H         0.054224         1.882517         2.685028
 H        -0.972351         0.398922         2.584958
 H         0.613389        -0.061611         0.310798
 H         0.839229         2.666204        -0.077552
 H        -0.351591         2.092224        -1.251715
 H        -0.491338         4.478899         0.841557
 H        -1.571481         4.213745        -0.560446
 H        -3.204699         3.663789         0.936281
 H        -3.088615         0.896083         0.089236
