19
Iteration:  1781
 O        -3.120740         2.079051         3.076088
 C        -2.183025         1.919554         2.034623
 C        -0.831391         1.265406         2.053997
 C        -0.708536         1.241318         0.525798
 O        -0.129394         0.069041        -0.042187
 C        -0.193450         2.566729        -0.089599
 C        -1.182283         3.687909         0.196432
 C        -2.217409         2.897119         0.911183
 C        -2.243053         1.468502         0.458428
 H        -3.339804         1.160905         3.485271
 H        -0.071381         1.614010         2.725881
 H        -1.105720         0.173584         2.319786
 H         0.341639        -0.393133         0.651715
 H         0.881733         2.794513         0.192488
 H        -0.173094         2.611477        -1.171079
 H        -0.830740         4.609119         0.715034
 H        -1.570241         4.021984        -0.824345
 H        -3.134849         3.465212         0.875952
 H        -2.862429         0.903997        -0.242086
