19
Iteration:  3506charge 0 multiplicity 1
 O        -3.190584         1.740310         2.950973
 C        -2.100979         1.870363         1.936264
 C        -0.700090         1.558435         2.098773
 C        -0.626123         1.304117         0.487162
 O        -0.340021         0.020623         0.226599
 C        -0.252888         2.505856        -0.356403
 C        -1.103154         3.735900         0.344914
 C        -2.273247         2.964771         0.924021
 C        -2.182165         1.494384         0.575216
 H        -2.899761         2.133193         3.790129
 H        -0.135163         2.337904         2.602872
 H        -0.424311         0.484813         2.478765
 H        -0.036979        -0.287823        -0.664867
 H         0.917305         2.610935        -0.311099
 H        -0.537563         2.348458        -1.449268
 H        -0.443053         4.297960         1.023661
 H        -1.540619         4.297900        -0.458923
 H        -3.277798         3.311092         0.545593
 H        -2.854030         0.957775        -0.144607
