19
Iteration:  4517charge 0 multiplicity 1
 O        -3.155096         2.012522         3.069859
 C        -2.183646         1.908469         1.983027
 C        -0.783210         1.311552         2.116144
 C        -0.704761         1.239390         0.500983
 O        -0.157480         0.088346        -0.059253
 C        -0.161511         2.527714        -0.167578
 C        -1.088922         3.697622         0.309226
 C        -2.301077         2.918972         0.884012
 C        -2.303615         1.475302         0.496386
 H        -3.386645         1.123739         3.531322
 H         0.039599         1.807013         2.687527
 H        -0.845044         0.295292         2.331595
 H         0.776235        -0.067332        -0.106879
 H         0.736233         2.817857         0.216380
 H        -0.159671         2.464311        -1.190484
 H        -0.545725         4.263969         0.989008
 H        -1.456610         4.285490        -0.545631
 H        -3.361631         3.396752         0.904963
 H        -3.056629         0.937101        -0.092834
