19
Iteration:   136charge 0 multiplicity 1
 O        -2.937012         1.917718         3.104182
 C        -2.234058         1.946365         1.947152
 C        -0.800705         1.383922         2.108234
 C        -0.788204         1.245205         0.509476
 O        -0.128077         0.051178         0.128210
 C        -0.151502         2.604060        -0.044412
 C        -1.145396         3.670150         0.241546
 C        -2.359363         2.931365         0.695319
 C        -2.261371         1.437568         0.404252
 H        -3.847402         1.708388         2.943308
 H        -0.164160         2.144388         2.286538
 H        -0.811205         0.461976         2.673654
 H        -0.440534        -0.740591         0.636677
 H         0.830915         2.800757         0.367320
 H        -0.114446         2.519050        -1.098551
 H        -0.810821         4.452884         0.989649
 H        -1.283485         4.133718        -0.774218
 H        -3.337365         3.414142         0.679016
 H        -2.661495         0.860668        -0.393208
