19
Iteration:   707
 O        -3.012347         1.850268         2.995532
 C        -2.198200         1.975651         1.881077
 C        -0.756611         1.405510         2.112169
 C        -0.813488         1.207868         0.457927
 O        -0.232066         0.063507         0.104638
 C        -0.128401         2.418824        -0.021903
 C        -0.979062         3.708554         0.391942
 C        -2.312533         3.005744         0.791423
 C        -2.361293         1.545899         0.429279
 H        -3.880944         1.387132         2.982665
 H        -0.030029         1.963187         2.680768
 H        -0.834626         0.333594         2.464345
 H         0.249797         0.226420        -0.700634
 H         0.796897         2.491305         0.539672
 H         0.131417         2.537560        -1.116516
 H        -0.679880         4.317771         1.222931
 H        -1.279377         4.245618        -0.555709
 H        -3.321252         3.480541         0.746578
 H        -3.221633         1.058374        -0.004133
