19
Iteration:  1936
 O        -3.078674         2.091808         3.101088
 C        -2.165577         1.871092         1.997453
 C        -0.793775         1.354188         2.131901
 C        -0.710665         1.267297         0.584079
 O        -0.281813         0.125667        -0.122372
 C        -0.080791         2.533850        -0.081608
 C        -1.125426         3.668731         0.225048
 C        -2.263596         2.826831         0.808197
 C        -2.326945         1.359994         0.538344
 H        -3.571314         1.304007         3.173515
 H         0.055438         1.908424         2.555193
 H        -0.657758         0.327553         2.634880
 H         0.688594         0.189216        -0.341825
 H         0.960862         2.845166         0.222818
 H        -0.047298         2.292002        -1.145990
 H        -0.874250         4.518998         0.903203
 H        -1.542964         4.240494        -0.666590
 H        -3.171764         3.440003         0.878740
 H        -3.053486         0.755291         0.049484
