19
Iteration:   443charge 0 multiplicity 1
 O        -3.296081         1.890358         2.977318
 C        -2.214830         1.830426         1.985094
 C        -0.797202         1.349554         2.115097
 C        -0.735330         1.248775         0.610284
 O        -0.107350         0.031983         0.071484
 C        -0.183062         2.496772        -0.139963
 C        -0.942361         3.689566         0.303241
 C        -2.261548         2.987937         0.775131
 C        -2.308040         1.558057         0.462229
 H        -2.913839         2.207682         3.799230
 H        -0.174818         1.971523         2.736293
 H        -0.695447         0.266749         2.523445
 H         0.328047         0.465298        -0.681204
 H         0.944019         2.508168        -0.041220
 H        -0.493706         2.389910        -1.211650
 H        -0.560637         4.360132         1.042499
 H        -1.169638         4.464413        -0.458296
 H        -3.138534         3.623421         0.639261
 H        -2.948482         0.922797        -0.097573
