19
Iteration:   231
 O        -3.226922         1.735451         2.872317
 C        -2.151049         1.989377         1.974897
 C        -0.761590         1.457590         2.069250
 C        -0.697186         1.280032         0.522431
 O        -0.213566         0.011467         0.278923
 C        -0.116844         2.486010        -0.222199
 C        -1.020137         3.700573         0.293028
 C        -2.344637         2.983317         0.827732
 C        -2.235096         1.535725         0.505028
 H        -2.877686         1.890844         3.757441
 H        -0.078118         2.240386         2.518460
 H        -0.737669         0.446666         2.470972
 H        -0.515849        -0.188421        -0.620262
 H         0.918683         2.727038         0.093366
 H        -0.105367         2.481522        -1.346700
 H        -0.601978         4.286135         1.085478
 H        -1.225044         4.391191        -0.479875
 H        -3.377767         3.410933         0.883230
 H        -3.014308         1.042694        -0.057843
