19
Iteration:   755charge 0 multiplicity 1
 O        -3.236750         1.852608         2.940645
 C        -2.145586         1.904655         2.030306
 C        -0.794558         1.447275         2.227913
 C        -0.716810         1.282379         0.492310
 O        -0.302647        -0.017302        -0.034759
 C        -0.206436         2.551735        -0.237926
 C        -0.908437         3.714429         0.364399
 C        -2.262415         2.901189         0.912529
 C        -2.185034         1.482024         0.543927
 H        -3.667513         2.642197         2.602546
 H        -0.076578         2.092645         2.868524
 H        -0.802361         0.412982         2.525241
 H         0.680121         0.161302        -0.119890
 H         0.924822         2.566920        -0.298265
 H        -0.564948         2.402077        -1.343334
 H        -0.484681         3.938327         1.371483
 H        -1.364626         4.509794        -0.150063
 H        -3.158180         3.438114         0.577963
 H        -2.809313         0.936372        -0.164351
