19
Iteration:   402
 O        -3.254328         1.794844         2.779958
 C        -2.096689         1.929234         1.948500
 C        -0.693422         1.573862         2.182069
 C        -0.731750         1.275479         0.483205
 O        -0.400083        -0.065794         0.048561
 C        -0.113447         2.560093        -0.098924
 C        -1.040688         3.681906         0.357647
 C        -2.241550         2.971938         0.806090
 C        -2.248275         1.496322         0.550535
 H        -2.973351         1.397641         3.607468
 H        -0.022345         2.391647         2.636798
 H        -0.400952         0.591601         2.701498
 H         0.572371        -0.263519         0.124220
 H         0.899310         2.692124         0.197743
 H        -0.248471         2.503125        -1.180472
 H        -0.647226         4.258276         1.268225
 H        -1.064326         4.511823        -0.427359
 H        -3.191593         3.454041         1.048490
 H        -3.057997         0.806056         0.364591
