19
Iteration:  3271charge 0 multiplicity 1
 O        -3.049839         1.885891         3.189541
 C        -2.219365         1.925466         2.037652
 C        -0.736531         1.449595         2.062313
 C        -0.757296         1.268195         0.544912
 O        -0.223959         0.075523         0.011701
 C        -0.091385         2.489295        -0.140388
 C        -1.113207         3.678225         0.150566
 C        -2.321465         2.944332         0.839557
 C        -2.236368         1.355361         0.564187
 H        -3.952521         2.161306         2.954065
 H         0.021110         2.005910         2.628273
 H        -0.813521         0.430524         2.453875
 H        -0.298229         0.317030        -0.932869
 H         0.849396         2.697778         0.350870
 H         0.019040         2.649577        -1.210263
 H        -0.614901         4.559617         0.635975
 H        -1.458465         3.951519        -0.879148
 H        -3.336669         3.374005         0.677510
 H        -2.899874         1.015806        -0.223851
