19
Iteration:  1801charge 0 multiplicity 1
 O        -3.200181         2.024434         2.963106
 C        -2.142611         1.839415         2.026860
 C        -0.720925         1.285167         2.208265
 C        -0.702401         1.291625         0.557790
 O        -0.168039         0.123823        -0.087767
 C        -0.139621         2.518998        -0.217706
 C        -1.112005         3.678650         0.162090
 C        -2.298835         2.971220         0.967869
 C        -2.287821         1.479018         0.580073
 H        -3.430533         1.126545         3.262538
 H         0.029066         2.006621         2.650612
 H        -0.700474         0.302062         2.707697
 H         0.034593        -0.628997         0.459138
 H         0.947846         2.642628         0.012000
 H        -0.113917         2.151542        -1.270503
 H        -0.588934         4.433839         0.793728
 H        -1.663370         4.337169        -0.551050
 H        -3.310091         3.367231         0.910526
 H        -3.040798         1.011196        -0.045373
