19
Iteration:  4462charge 0 multiplicity 1
 O        -3.156702         1.801244         2.909790
 C        -2.145211         1.982121         2.010770
 C        -0.646287         1.563446         1.974893
 C        -0.756595         1.293040         0.464071
 O        -0.322282        -0.095611         0.083053
 C        -0.113286         2.513523        -0.161984
 C        -1.091559         3.683209         0.426365
 C        -2.343712         3.019240         0.933957
 C        -2.259167         1.495326         0.549121
 H        -3.400155         0.817448         2.915444
 H         0.138061         2.303352         2.235504
 H        -0.385342         0.672119         2.432099
 H         0.638459        -0.125899        -0.052032
 H         0.871066         2.678243         0.064225
 H        -0.143346         2.587039        -1.230878
 H        -0.631295         4.263182         1.202954
 H        -1.428685         4.472099        -0.283482
 H        -3.386028         3.474626         0.849702
 H        -2.927921         0.844606        -0.020222
