19
Iteration:   793
 O        -3.139308         1.746977         2.927860
 C        -2.198341         1.948447         1.977505
 C        -0.775461         1.464082         2.025342
 C        -0.830703         1.230321         0.447831
 O        -0.228839         0.006594         0.071728
 C        -0.105437         2.504789        -0.139295
 C        -0.989222         3.689601         0.342432
 C        -2.294191         3.017033         0.827653
 C        -2.315803         1.583073         0.515676
 H        -2.998883         1.999316         3.882506
 H        -0.047127         2.049955         2.542793
 H        -0.862653         0.495160         2.599598
 H         0.338540        -0.305489         0.794092
 H         0.907747         2.601347         0.252073
 H        -0.118362         2.551363        -1.191449
 H        -0.517789         4.237720         1.153076
 H        -0.910970         4.492178        -0.434264
 H        -3.324842         3.405078         0.900732
 H        -3.052963         1.040493        -0.109095
