19
Iteration:   677
 O        -3.150395         1.878618         3.081804
 C        -2.206701         2.001672         1.984977
 C        -0.844438         1.279733         2.066380
 C        -0.713559         1.287008         0.493026
 O        -0.195182        -0.023315         0.122556
 C         0.018141         2.497633        -0.078038
 C        -1.058635         3.729591         0.257398
 C        -2.307261         2.976624         0.895515
 C        -2.290360         1.635712         0.345035
 H        -3.299267         0.916658         3.267311
 H        -0.078715         1.699896         2.812174
 H        -0.813107         0.221613         2.087606
 H        -0.610521        -0.157620        -0.768278
 H         0.907908         2.869153         0.417416
 H         0.197504         2.449028        -1.210335
 H        -0.694283         4.521528         0.940072
 H        -1.467237         4.280721        -0.578522
 H        -3.345225         3.416439         0.845329
 H        -3.009864         1.084882        -0.281692
