19
Iteration:  4021charge 0 multiplicity 1
 O        -3.109256         1.888814         2.997525
 C        -2.134129         1.925504         1.967714
 C        -0.738898         1.239062         2.113695
 C        -0.694839         1.284916         0.592665
 O        -0.246889         0.111642         0.021209
 C        -0.155205         2.523416        -0.060062
 C        -1.152755         3.715002         0.269674
 C        -2.334420         2.916367         0.785189
 C        -2.252825         1.449790         0.525671
 H        -3.376616         2.844330         3.092928
 H         0.089078         1.707315         2.762346
 H        -0.831690         0.095666         2.462313
 H         0.434445         0.224641        -0.660645
 H         0.904452         2.882019         0.153875
 H        -0.360934         2.366388        -1.152730
 H        -0.722441         4.417722         1.027629
 H        -1.172952         4.421459        -0.553138
 H        -3.316565         3.312997         0.718520
 H        -2.973787         0.942999        -0.117227
