19
Iteration:   331
 O        -3.145222         1.984482         2.946425
 C        -2.190118         1.957629         1.958753
 C        -0.773228         1.304742         2.051697
 C        -0.681882         1.260361         0.512168
 O        -0.130154         0.105734        -0.038450
 C        -0.199574         2.429932        -0.022657
 C        -1.073464         3.641136         0.368776
 C        -2.301922         2.962158         0.813710
 C        -2.256499         1.499980         0.541808
 H        -4.019362         1.726098         2.680349
 H        -0.093261         1.900181         2.660723
 H        -0.831460         0.289101         2.540709
 H         0.257496        -0.341857         0.760311
 H         0.878804         2.650869         0.202958
 H        -0.371036         2.358578        -1.115850
 H        -0.595620         4.386433         0.995483
 H        -1.229908         4.210833        -0.526355
 H        -3.248764         3.496631         0.853522
 H        -3.193720         1.091444         0.086125
