19
Iteration:  4470charge 0 multiplicity 1
 O        -3.145674         1.803348         2.942247
 C        -2.158858         1.998609         1.954046
 C        -0.658354         1.539838         2.045967
 C        -0.773016         1.265732         0.474293
 O        -0.293278        -0.110071         0.042186
 C        -0.162985         2.563247        -0.156651
 C        -1.110171         3.701251         0.380017
 C        -2.319336         3.008689         0.902485
 C        -2.222967         1.499598         0.581272
 H        -3.552504         0.913364         2.928619
 H        -0.024424         2.286874         2.495749
 H        -0.444036         0.513677         2.494777
 H         0.666388         0.004015        -0.162346
 H         0.906348         2.699763         0.127808
 H        -0.343931         2.537693        -1.171014
 H        -0.567581         4.043165         1.214361
 H        -1.245624         4.429292        -0.404036
 H        -3.191820         3.557341         0.900703
 H        -2.899176         0.875281         0.010008
