19
Iteration:  3663charge 0 multiplicity 1
 O        -3.074419         1.743118         3.081347
 C        -2.229403         1.914124         2.027097
 C        -0.753472         1.422668         2.062836
 C        -0.695111         1.331835         0.475996
 O        -0.221973         0.033621         0.141161
 C        -0.160737         2.553972        -0.179552
 C        -1.032765         3.689312         0.184008
 C        -2.325532         2.977612         0.869516
 C        -2.349510         1.476634         0.492027
 H        -3.015615         2.522706         3.757826
 H        -0.144815         2.274740         2.485641
 H        -0.646621         0.482450         2.550433
 H         0.360178         0.156122        -0.620863
 H         0.821900         2.605564         0.223750
 H        -0.200148         2.135242        -1.187511
 H        -0.700158         4.526986         0.710403
 H        -1.348535         3.955288        -0.840951
 H        -3.391585         3.378573         0.798608
 H        -3.015589         1.010001        -0.248674
