19
Iteration:  1761
 O        -2.959367         2.046754         3.049520
 C        -2.211585         1.964428         1.911874
 C        -0.802285         1.256797         2.051493
 C        -0.746022         1.233966         0.542658
 O        -0.164919         0.076601        -0.020113
 C        -0.013347         2.513894        -0.047977
 C        -1.208165         3.690992         0.272815
 C        -2.476564         2.924408         0.775283
 C        -2.351160         1.476522         0.484806
 H        -3.019284         1.161909         3.497706
 H        -0.038519         1.755819         2.566568
 H        -0.890663         0.166508         2.420848
 H         0.503615        -0.077441         0.714968
 H         0.835720         2.879646         0.582350
 H         0.345471         2.387880        -1.091112
 H        -0.742874         4.340030         1.014138
 H        -1.229910         4.250088        -0.675651
 H        -3.447917         3.420007         0.890516
 H        -3.199394         0.897449         0.070159
