19
Iteration:  3482
 O        -3.166668         1.758489         3.021386
 C        -2.108985         1.977279         1.955968
 C        -0.710878         1.440237         2.120028
 C        -0.706348         1.294608         0.603178
 O        -0.134220         0.044473         0.076627
 C        -0.211648         2.516426        -0.197863
 C        -1.103822         3.683289         0.145713
 C        -2.294659         2.980194         0.854023
 C        -2.368378         1.455226         0.581554
 H        -3.049529         2.370673         3.716299
 H        -0.001764         2.080214         2.643455
 H        -0.651219         0.403391         2.467805
 H        -0.420440         0.201623        -0.866011
 H         0.898114         2.566967         0.014839
 H        -0.328863         2.330143        -1.245739
 H        -0.461532         4.133233         0.928331
 H        -1.398719         4.350036        -0.670213
 H        -3.235470         3.581778         0.963787
 H        -3.058429         0.838536         0.095166
