19
Iteration:   147
 O        -2.954812         2.001222         3.078229
 C        -2.240883         1.884669         1.860167
 C        -0.757854         1.388965         2.050358
 C        -0.754041         1.236024         0.554669
 O        -0.141591         0.042513         0.140614
 C        -0.158136         2.571224        -0.063447
 C        -1.154674         3.739557         0.273309
 C        -2.332767         2.890215         0.731500
 C        -2.330422         1.415380         0.392158
 H        -3.729553         1.380264         3.101727
 H        -0.077759         1.891781         2.610846
 H        -0.599513         0.424148         2.527779
 H        -0.183959        -0.427582         1.008360
 H         0.841201         2.817545         0.287214
 H        -0.092971         2.465238        -1.122243
 H        -0.779913         4.323836         1.156310
 H        -1.381550         4.517173        -0.511332
 H        -3.303586         3.336778         0.535424
 H        -2.976216         0.941683        -0.319850
