19
Iteration:   651charge 0 multiplicity 1
 O        -3.201538         1.949536         2.819203
 C        -2.166340         1.885534         1.962076
 C        -0.767353         1.344974         2.133414
 C        -0.736064         1.269676         0.594108
 O        -0.258755         0.069047        -0.019683
 C        -0.083576         2.519345        -0.028944
 C        -1.008969         3.709402         0.317487
 C        -2.211313         2.961240         0.927851
 C        -2.302890         1.435596         0.539130
 H        -2.989706         1.374066         3.615860
 H        -0.106784         2.025258         2.615423
 H        -0.548224         0.253522         2.448532
 H        -0.852460        -0.040837        -0.792388
 H         0.941506         2.875497         0.217643
 H        -0.117296         2.427245        -1.140715
 H        -0.642552         4.504756         0.953419
 H        -1.397248         4.371326        -0.520545
 H        -3.182159         3.403621         0.916304
 H        -3.002029         0.878820        -0.085901
