19
Iteration:   242charge 0 multiplicity 1
 O        -3.173167         1.690209         2.921664
 C        -2.210467         1.967688         1.924754
 C        -0.752852         1.432202         1.988171
 C        -0.789219         1.305395         0.508140
 O        -0.180217        -0.023347         0.306221
 C        -0.074478         2.594709        -0.110991
 C        -1.016870         3.751110         0.275675
 C        -2.305212         3.034237         0.792592
 C        -2.311639         1.516295         0.484514
 H        -2.982716         2.153661         3.733639
 H         0.138627         2.022960         2.369805
 H        -0.661978         0.476485         2.518451
 H        -0.609381        -0.612981        -0.359738
 H         1.013805         2.545705         0.051337
 H        -0.271739         2.352857        -1.184838
 H        -0.584782         4.334751         1.055436
 H        -1.234995         4.342959        -0.574894
 H        -3.264546         3.597642         0.726397
 H        -2.940943         0.771760         0.030809
