19
Iteration:  1424charge 0 multiplicity 1
 O        -3.106040         1.910146         3.015788
 C        -2.188615         1.919059         2.001933
 C        -0.714133         1.413010         2.151035
 C        -0.672984         1.329465         0.518785
 O        -0.354653        -0.096076        -0.048431
 C        -0.071306         2.579717        -0.054607
 C        -1.147591         3.708723         0.193669
 C        -2.314485         2.996796         0.834567
 C        -2.246041         1.508130         0.512580
 H        -3.303972         0.977128         3.341985
 H         0.024857         2.072265         2.696586
 H        -0.737890         0.425229         2.572910
 H         0.473685        -0.486085         0.359914
 H         0.961951         2.691468         0.226339
 H        -0.076761         2.447251        -1.167963
 H        -0.719599         4.439860         0.951516
 H        -1.290500         4.261248        -0.751086
 H        -3.305319         3.504078         0.920953
 H        -2.979867         1.065185        -0.165808
