19
Iteration:  4137
 O        -3.129081         1.806310         2.928140
 C        -2.166714         1.867449         1.978220
 C        -0.743453         1.450210         2.064714
 C        -0.767266         1.284670         0.518902
 O        -0.163289         0.059078         0.055008
 C        -0.089135         2.538332        -0.124895
 C        -1.076181         3.635220         0.324102
 C        -2.273979         2.944485         0.938403
 C        -2.367486         1.502609         0.541093
 H        -3.372227         2.720062         3.214808
 H        -0.057810         2.114132         2.507907
 H        -0.469441         0.475933         2.358910
 H        -0.556100        -0.100803        -0.800475
 H         0.898671         2.802364         0.324852
 H         0.044698         2.351926        -1.179632
 H        -0.751590         4.450079         1.000221
 H        -1.400158         4.241430        -0.556839
 H        -3.282430         3.308313         0.898038
 H        -3.140993         0.983237        -0.017094
