19
Iteration:  3216
 O        -3.009654         1.973659         3.122123
 C        -2.208571         1.958645         1.985559
 C        -0.725127         1.356182         2.009681
 C        -0.769566         1.234070         0.505894
 O        -0.128375         0.007524         0.037610
 C        -0.160852         2.509997        -0.108958
 C        -1.199926         3.622084         0.256342
 C        -2.377244         2.884298         0.835273
 C        -2.351772         1.453791         0.528297
 H        -3.252812         2.862182         3.202872
 H         0.063619         2.002235         2.409295
 H        -0.587403         0.343816         2.395507
 H         0.595964         0.425565        -0.505806
 H         0.762162         2.764754         0.415027
 H        -0.077935         2.586381        -1.188821
 H        -0.709761         4.216164         1.030450
 H        -1.293966         4.283728        -0.612457
 H        -3.319290         3.434245         0.636116
 H        -3.037671         1.019321        -0.112248
