19
Iteration:  1460
 O        -3.172924         1.860320         2.952989
 C        -2.140718         1.957597         1.989692
 C        -0.778367         1.455416         2.127150
 C        -0.735244         1.274775         0.519466
 O        -0.215415         0.042316         0.070106
 C        -0.189501         2.473812        -0.311860
 C        -1.013748         3.640268         0.248729
 C        -2.240663         2.993945         0.947852
 C        -2.347210         1.524121         0.659753
 H        -3.514189         0.937346         2.647854
 H         0.104736         1.875366         2.707236
 H        -0.770015         0.394604         2.237027
 H         0.772029         0.226673         0.174321
 H         0.912963         2.605182        -0.187384
 H        -0.508966         2.438597        -1.379004
 H        -0.477315         4.171521         1.093214
 H        -1.187645         4.354728        -0.579405
 H        -3.190544         3.549336         1.028722
 H        -3.166978         1.046694         0.086074
