19
Iteration:  2022
 O        -3.237290         1.811409         2.998969
 C        -2.209813         1.896521         2.054190
 C        -0.721172         1.536517         2.225416
 C        -0.702893         1.295669         0.499016
 O        -0.155968         0.085740         0.006322
 C        -0.240188         2.456687        -0.384381
 C        -0.959325         3.688922         0.285556
 C        -2.282047         2.971813         0.939502
 C        -2.252894         1.475688         0.540016
 H        -2.907354         1.622871         3.932654
 H         0.023653         2.285685         2.276979
 H        -0.634652         0.553221         2.735408
 H        -0.759778        -0.628498         0.190935
 H         0.890852         2.597363        -0.489526
 H        -0.626683         2.425143        -1.392726
 H        -0.365555         4.254915         1.035528
 H        -1.336034         4.239938        -0.628022
 H        -3.285702         3.406664         0.809877
 H        -2.865575         0.907411        -0.104031
