19
Iteration:  4052charge 0 multiplicity 1
 O        -3.200683         1.685725         2.985985
 C        -2.229018         1.931320         1.979153
 C        -0.748490         1.490023         2.109913
 C        -0.699868         1.271057         0.487373
 O        -0.187572         0.000197         0.137613
 C        -0.091454         2.514434        -0.289941
 C        -1.058554         3.653883         0.346918
 C        -2.273103         3.034224         0.944387
 C        -2.354444         1.504144         0.490192
 H        -3.145494         2.559215         3.402849
 H        -0.155044         2.360410         2.458260
 H        -0.463339         0.515067         2.680047
 H         0.140792        -0.112836        -0.781652
 H         1.012941         2.870602        -0.157217
 H        -0.240987         2.547020        -1.351124
 H        -0.468688         4.245803         1.122015
 H        -1.261251         4.320717        -0.499441
 H        -3.199447         3.579357         0.907807
 H        -3.133778         1.211496        -0.204216
