19
Iteration:  1294charge 0 multiplicity 1
 O        -3.154834         1.814053         3.020175
 C        -2.168929         1.985498         1.953529
 C        -0.684290         1.500614         2.033600
 C        -0.705394         1.221600         0.527104
 O        -0.332407        -0.042647         0.164417
 C        -0.084361         2.518164        -0.209145
 C        -1.048542         3.743432         0.367705
 C        -2.324948         3.027029         0.814171
 C        -2.238982         1.509689         0.469478
 H        -3.085078         0.834200         3.117275
 H         0.101945         2.205511         2.493489
 H        -0.536100         0.689077         2.623152
 H        -0.795668        -0.453250        -0.596502
 H         0.890006         2.943305        -0.041263
 H        -0.405144         2.444865        -1.285360
 H        -0.449068         4.018160         1.265426
 H        -1.069174         4.593626        -0.300404
 H        -3.379934         3.321921         0.652771
 H        -2.991928         0.868194         0.009822
