19
Iteration:  2817charge 0 multiplicity 1
 O        -3.092785         1.784619         3.054214
 C        -2.262114         1.963796         1.998650
 C        -0.670547         1.434132         1.998433
 C        -0.817890         1.303981         0.512535
 O        -0.246129         0.049303        -0.011304
 C        -0.169835         2.486544        -0.246590
 C        -1.044283         3.647921         0.278438
 C        -2.289650         3.021443         0.939281
 C        -2.295106         1.569678         0.559522
 H        -3.027588         1.035182         3.682336
 H         0.069557         2.139214         2.432716
 H        -0.473048         0.512992         2.486917
 H         0.501181        -0.325931         0.520478
 H         0.893872         2.678738         0.072488
 H        -0.224463         2.175388        -1.312173
 H        -0.445010         4.352527         0.886564
 H        -1.511813         4.220389        -0.529170
 H        -3.259511         3.498400         0.978321
 H        -3.094703         1.122159        -0.029987
