19
Iteration:  1133
 O        -3.144737         1.697447         2.934516
 C        -2.186670         1.992546         1.953328
 C        -0.747446         1.523983         2.204480
 C        -0.789023         1.356220         0.575424
 O        -0.239975         0.040158         0.045026
 C        -0.147908         2.486964        -0.210692
 C        -0.988268         3.672016         0.219391
 C        -2.323232         3.013530         0.877407
 C        -2.231540         1.517447         0.515180
 H        -2.742557         1.579172         3.842560
 H         0.054913         2.052177         2.588090
 H        -0.636252         0.445691         2.626038
 H        -0.770523        -0.750079         0.381989
 H         0.972853         2.375750        -0.125515
 H        -0.189609         2.330410        -1.303415
 H        -0.479883         4.222847         1.008352
 H        -1.291035         4.346297        -0.637141
 H        -3.272161         3.567092         0.786108
 H        -3.102975         1.157382        -0.095808
