19
Iteration:  4430
 O        -3.097050         1.762242         2.971356
 C        -2.180480         1.793413         1.990922
 C        -0.768107         1.500694         2.153600
 C        -0.714063         1.356542         0.534737
 O        -0.408519         0.032997         0.071917
 C        -0.145569         2.543999        -0.234221
 C        -1.009345         3.723975         0.296366
 C        -2.280336         3.000908         0.843568
 C        -2.256134         1.524604         0.491889
 H        -2.894955         0.849728         3.316856
 H        -0.079510         2.285210         2.547310
 H        -0.482784         0.581876         2.498035
 H         0.454230        -0.115395         0.472644
 H         0.873448         2.704633         0.019778
 H        -0.260295         2.346325        -1.387735
 H        -0.576787         4.279485         1.132892
 H        -1.370876         4.509173        -0.447661
 H        -3.275694         3.556386         0.863875
 H        -2.641205         0.827395        -0.269288
