19
Iteration:  3853
 O        -3.107005         1.785800         2.951835
 C        -2.146260         2.035892         1.953068
 C        -0.728918         1.362683         2.078591
 C        -0.746401         1.308760         0.512189
 O        -0.162739         0.039893         0.120940
 C        -0.128625         2.535314        -0.168656
 C        -1.104726         3.702038         0.288374
 C        -2.330471         2.925021         0.853812
 C        -2.313600         1.501179         0.525261
 H        -3.308071         2.418177         3.648085
 H         0.261392         1.817999         2.547429
 H        -0.893215         0.301787         2.352069
 H        -0.744118        -0.508385        -0.458655
 H         0.874001         2.732438         0.285965
 H         0.021313         2.361663        -1.247303
 H        -0.720024         4.330352         1.089010
 H        -1.340579         4.398191        -0.512321
 H        -3.250243         3.493203         0.807811
 H        -3.170783         0.868816         0.174088
