19
Iteration:   493charge 0 multiplicity 1
 O        -3.137827         1.880353         3.085216
 C        -2.207677         1.967473         1.896051
 C        -0.768251         1.278492         2.045648
 C        -0.726017         1.240587         0.465914
 O        -0.182649        -0.012370         0.121141
 C        -0.015882         2.561204        -0.014627
 C        -1.071227         3.741815         0.332936
 C        -2.390862         2.975296         0.791076
 C        -2.266995         1.456929         0.419866
 H        -3.557116         2.800766         3.043674
 H         0.028419         1.986314         2.481503
 H        -0.863377         0.387931         2.581062
 H        -0.314401        -0.276232        -0.796347
 H         0.976659         2.570391         0.428275
 H         0.004227         2.637190        -1.084983
 H        -0.759423         4.477020         1.157583
 H        -1.192967         4.396149        -0.515576
 H        -3.417572         3.363271         0.751918
 H        -2.990194         0.976711        -0.220866
