19
Iteration:  4476
 O        -3.136991         1.827991         2.981416
 C        -2.161417         1.933341         1.963530
 C        -0.681259         1.500677         2.120698
 C        -0.683163         1.251395         0.510226
 O        -0.292959        -0.064488         0.016823
 C        -0.230257         2.595612        -0.174545
 C        -1.056556         3.700276         0.355324
 C        -2.305789         2.983748         0.844212
 C        -2.258670         1.487191         0.544576
 H        -3.503038         0.975818         2.828481
 H         0.004638         2.232449         2.628209
 H        -0.756010         0.542323         2.659750
 H         0.641562         0.156071        -0.240116
 H         0.859961         2.712178         0.089566
 H        -0.339564         2.383777        -1.354715
 H        -0.515426         4.248278         1.245202
 H        -1.147699         4.454366        -0.455562
 H        -3.297115         3.554221         0.912390
 H        -3.127092         0.972501         0.109733
