19
Iteration:   669charge 0 multiplicity 1
 O        -3.191915         1.921624         3.027318
 C        -2.202966         1.895652         2.005685
 C        -0.801503         1.273503         2.082702
 C        -0.694618         1.298540         0.501338
 O        -0.242375         0.039087         0.090535
 C        -0.034260         2.554215        -0.100077
 C        -1.078132         3.687479         0.275594
 C        -2.303406         2.976393         0.893261
 C        -2.194906         1.599603         0.379668
 H        -3.077955         0.971635         3.342773
 H        -0.017946         1.702345         2.762156
 H        -1.070710         0.272576         2.479491
 H        -0.624685        -0.357002        -0.706768
 H         0.968251         2.546686         0.386363
 H         0.168015         2.477422        -1.141593
 H        -0.611067         4.539248         0.867614
 H        -1.416729         4.181081        -0.640616
 H        -3.209885         3.587762         0.899961
 H        -3.020370         1.168119        -0.225490
