19
Iteration:  4745charge 0 multiplicity 1
 O        -3.134362         1.887238         3.038725
 C        -2.179661         1.915169         2.044108
 C        -0.768302         1.299270         2.142630
 C        -0.704895         1.282649         0.611224
 O        -0.275006         0.122631        -0.014918
 C        -0.059030         2.556295        -0.108750
 C        -1.078968         3.685150         0.158780
 C        -2.338522         2.983689         0.852829
 C        -2.218169         1.473688         0.542882
 H        -3.507099         1.043744         2.933190
 H         0.034950         1.858491         2.627407
 H        -0.655242         0.387152         2.592396
 H        -0.340675         0.343124        -0.941785
 H         0.960010         2.938178         0.130684
 H        -0.068577         2.327148        -1.191806
 H        -0.562859         4.471910         0.703661
 H        -1.474156         3.986322        -0.820521
 H        -3.415681         3.340513         0.890918
 H        -2.829432         0.679183         0.143438
