19
Iteration:  2207
 O        -3.025906         1.762833         3.098055
 C        -2.177220         2.025932         1.930638
 C        -0.722767         1.572786         2.041099
 C        -0.793374         1.254509         0.499254
 O        -0.211512        -0.002351         0.137511
 C        -0.213897         2.494951        -0.313081
 C        -0.984341         3.644025         0.414994
 C        -2.364351         3.045478         0.792302
 C        -2.324319         1.476814         0.480969
 H        -2.376858         1.151940         3.601784
 H         0.108747         2.254593         2.428014
 H        -0.733403         0.632813         2.665990
 H        -0.823654        -0.447790        -0.434451
 H         0.903908         2.547902        -0.175914
 H        -0.468808         2.348156        -1.360829
 H        -0.581384         3.964077         1.363195
 H        -1.425195         4.466486        -0.169302
 H        -3.311724         3.571948         0.743328
 H        -3.106695         1.047981        -0.218554
