19
Iteration:  2843charge 0 multiplicity 1
 O        -3.004230         1.859960         3.061612
 C        -2.126784         2.057837         1.972310
 C        -0.687566         1.421711         2.136991
 C        -0.789765         1.235998         0.510513
 O        -0.275519         0.029845        -0.103470
 C        -0.159466         2.533460        -0.121164
 C        -1.098172         3.675250         0.281338
 C        -2.332504         2.964401         0.821536
 C        -2.353104         1.429768         0.568764
 H        -3.699048         1.228964         2.940878
 H         0.025648         2.110294         2.671492
 H        -0.765660         0.502488         2.824122
 H         0.668733         0.031800        -0.353274
 H         0.787901         2.763182         0.359765
 H        -0.033279         2.370408        -1.202516
 H        -0.652467         4.172548         1.149242
 H        -1.234729         4.368581        -0.584316
 H        -3.370984         3.388617         0.876814
 H        -3.261370         0.884823         0.302535
