19
Iteration:  3949charge 0 multiplicity 1
 O        -3.080754         1.795638         2.938502
 C        -2.177881         1.924194         1.937814
 C        -0.788555         1.321319         2.182806
 C        -0.683938         1.317218         0.571872
 O        -0.305766         0.034068         0.020903
 C        -0.147838         2.551849        -0.117942
 C        -1.135593         3.727864         0.221883
 C        -2.293177         2.952942         0.860484
 C        -2.188874         1.515749         0.550519
 H        -3.119392         2.745461         3.338653
 H        -0.196804         1.907078         2.864829
 H        -0.798600         0.314777         2.365183
 H         0.655554        -0.163130        -0.150134
 H         0.842632         2.654592         0.200511
 H        -0.150478         2.318787        -1.177887
 H        -0.784418         4.488682         0.920976
 H        -1.678522         4.355487        -0.536738
 H        -3.338892         3.330940         0.851197
 H        -2.838544         0.909854        -0.154566
