19
Iteration:  1026charge 0 multiplicity 1
 O        -2.959096         1.969757         3.083846
 C        -2.195365         1.947140         1.924718
 C        -0.823746         1.315197         2.014958
 C        -0.777559         1.257106         0.497640
 O        -0.137235         0.137277         0.001829
 C        -0.163603         2.467911        -0.071230
 C        -1.004651         3.666512         0.362988
 C        -2.344154         2.935528         0.857154
 C        -2.410922         1.424865         0.423955
 H        -3.927362         2.232020         2.958447
 H        -0.012758         2.010761         2.427672
 H        -1.007229         0.334833         2.550666
 H         0.239383        -0.517683         0.607822
 H         0.866113         2.586918         0.309823
 H        -0.290658         2.399999        -1.144991
 H        -0.618899         4.434572         1.065273
 H        -1.191846         4.244409        -0.582517
 H        -3.326882         3.449685         0.856774
 H        -3.119412         0.822485        -0.180804
