19
Iteration:  3628charge 0 multiplicity 1
 O        -3.047804         1.922333         3.004055
 C        -2.122672         1.988780         1.963013
 C        -0.694805         1.341611         2.077403
 C        -0.730858         1.258715         0.564171
 O        -0.170528         0.014044        -0.060315
 C        -0.140647         2.558628         0.034623
 C        -1.173477         3.689066         0.198678
 C        -2.441579         2.879733         0.768692
 C        -2.328974         1.412073         0.604918
 H        -2.994251         2.784210         3.566210
 H         0.028140         1.928421         2.650503
 H        -0.880791         0.413932         2.712954
 H        -0.362970         0.044107        -1.009191
 H         0.780562         2.814489         0.590786
 H         0.293025         2.591793        -0.945265
 H        -0.804801         4.421296         0.912576
 H        -1.221670         4.251094        -0.745458
 H        -3.328167         3.407781         0.740220
 H        -2.998616         0.687236         0.248936
