19
Iteration:   870
 O        -3.210162         2.036663         2.992493
 C        -2.219204         2.040946         2.065087
 C        -0.708134         1.304584         2.081120
 C        -0.682288         1.218442         0.464202
 O        -0.055111         0.034751        -0.077525
 C        -0.134770         2.450983        -0.102263
 C        -1.072724         3.728589         0.347876
 C        -2.366353         2.918716         0.845967
 C        -2.263949         1.467198         0.609827
 H        -3.895914         1.472330         2.732566
 H        -0.105184         2.003629         2.607629
 H        -0.542160         0.221697         2.462609
 H        -0.829832        -0.314079        -0.609194
 H         0.903407         2.543135         0.192114
 H        -0.190120         2.346245        -1.148112
 H        -0.609712         4.309932         1.135720
 H        -1.440708         4.297190        -0.511048
 H        -3.275713         3.528711         1.062413
 H        -2.969976         0.781899         0.058885
