19
Iteration:   571charge 0 multiplicity 1
 O        -3.070038         1.818396         3.010381
 C        -2.214337         1.879245         1.878968
 C        -0.861821         1.375543         2.004551
 C        -0.708279         1.283126         0.527199
 O        -0.158593         0.024301         0.266038
 C        -0.105605         2.453163        -0.204142
 C        -1.005650         3.721278         0.354284
 C        -2.241737         3.064661         0.922238
 C        -2.375264         1.597479         0.409444
 H        -3.952335         1.411233         2.791000
 H         0.003800         1.737974         2.586897
 H        -1.086119         0.320072         2.268032
 H        -0.026547        -0.146693        -0.695338
 H         0.969666         2.667974         0.008149
 H        -0.257697         2.371595        -1.260817
 H        -0.465907         4.269311         1.179409
 H        -1.435480         4.337275        -0.426768
 H        -3.243173         3.536571         0.985508
 H        -3.265964         1.396007        -0.193815
