19
Iteration:   712
 O        -3.029888         1.871333         2.981927
 C        -2.164687         1.957065         1.940830
 C        -0.767499         1.419904         2.110218
 C        -0.839229         1.266888         0.514436
 O        -0.234793         0.042454         0.067293
 C        -0.114626         2.428581        -0.031028
 C        -1.030484         3.675770         0.411465
 C        -2.302405         3.015197         0.794908
 C        -2.355515         1.514720         0.399133
 H        -3.913960         1.502239         2.761431
 H         0.043517         2.050021         2.614546
 H        -0.726961         0.399345         2.435543
 H         0.318054         0.310058        -0.713487
 H         0.907071         2.479936         0.419425
 H         0.107628         2.364142        -1.136136
 H        -0.510636         4.192634         1.276661
 H        -1.152417         4.258987        -0.483669
 H        -3.316448         3.405188         0.760502
 H        -3.207549         0.958691        -0.034443
