19
Iteration:  4107charge 0 multiplicity 1
 O        -3.211553         1.669227         2.954338
 C        -2.198012         1.898135         1.975117
 C        -0.751667         1.498225         2.113114
 C        -0.664449         1.325394         0.565829
 O        -0.261536        -0.036597         0.163516
 C        -0.169259         2.563691        -0.301949
 C        -1.040825         3.744591         0.327087
 C        -2.268435         3.015662         0.867696
 C        -2.199170         1.558171         0.479043
 H        -2.891185         2.127896         3.800519
 H        -0.133005         2.220659         2.662404
 H        -0.389808         0.385817         2.340820
 H        -0.923308        -0.264205        -0.549233
 H         0.933017         2.948971        -0.197365
 H        -0.317225         2.298918        -1.321898
 H        -0.481972         4.137699         1.253564
 H        -1.299088         4.448273        -0.468569
 H        -3.263454         3.369810         0.813933
 H        -2.745347         0.828736        -0.164511
