19
Iteration:  3906
 O        -3.222131         1.654141         2.838249
 C        -2.162253         1.904907         1.983419
 C        -0.684712         1.658993         2.080696
 C        -0.787028         1.306032         0.462782
 O        -0.267676         0.050580         0.064784
 C        -0.193594         2.423427        -0.305461
 C        -0.967093         3.638365         0.401400
 C        -2.304512         3.024394         0.918103
 C        -2.262047         1.514810         0.638433
 H        -3.190026         2.016947         3.757520
 H         0.035539         2.411356         2.478436
 H        -0.377086         0.867267         2.658512
 H         0.225457        -0.375088         0.798156
 H         0.831116         2.629632        -0.101496
 H        -0.298824         2.310736        -1.380823
 H        -0.300427         4.033883         1.152469
 H        -1.096553         4.450290        -0.340792
 H        -3.238462         3.578775         0.774803
 H        -3.009510         1.018572        -0.045546
