19
Iteration:   840
 O        -3.106761         1.915162         2.965171
 C        -2.196429         1.986862         1.988469
 C        -0.729018         1.361521         2.143393
 C        -0.725469         1.277522         0.569986
 O        -0.265743         0.123941        -0.005726
 C        -0.053985         2.502706        -0.064703
 C        -1.084064         3.658592         0.251603
 C        -2.292067         2.921871         0.833262
 C        -2.277907         1.474643         0.435269
 H        -3.183519         0.936020         3.199973
 H        -0.038508         2.037571         2.659139
 H        -0.609733         0.422511         2.654847
 H        -0.931952        -0.549958         0.152563
 H         0.845933         2.687294         0.477846
 H         0.011589         2.216517        -1.127787
 H        -0.698747         4.407599         0.936604
 H        -1.535409         4.343110        -0.471264
 H        -3.232642         3.483531         0.979909
 H        -2.935174         1.072827        -0.342773
