19
Iteration:  1875charge 0 multiplicity 1
 O        -3.042171         1.839798         2.996528
 C        -2.206127         1.849556         1.962041
 C        -0.724493         1.457386         2.082336
 C        -0.781143         1.349576         0.474073
 O        -0.292727         0.046932         0.269580
 C        -0.155748         2.539943        -0.285722
 C        -1.026864         3.695425         0.343126
 C        -2.311526         2.955951         0.904411
 C        -2.262735         1.508231         0.406286
 H        -3.068876         1.019673         3.445651
 H         0.102420         2.197381         2.422522
 H        -0.613100         0.456867         2.416004
 H        -0.613212        -0.428343        -0.575478
 H         0.868286         2.852598        -0.119153
 H        -0.284107         2.296245        -1.377684
 H        -0.508552         4.157432         1.209002
 H        -1.231882         4.469374        -0.376933
 H        -3.347858         3.298464         0.802352
 H        -2.901088         1.102266        -0.368967
