19
Iteration:  1803charge 0 multiplicity 1
 O        -3.199675         2.008497         2.950722
 C        -2.128602         1.838747         2.039232
 C        -0.703370         1.316146         2.204557
 C        -0.703163         1.297161         0.555367
 O        -0.170682         0.126257        -0.091848
 C        -0.143479         2.518695        -0.203347
 C        -1.096844         3.656500         0.161869
 C        -2.312851         2.968307         0.974690
 C        -2.306867         1.489830         0.582170
 H        -3.441433         1.161128         3.242670
 H         0.007253         1.983662         2.663961
 H        -0.739912         0.292336         2.743956
 H        -0.014799        -0.668517         0.486222
 H         0.974351         2.598628        -0.022558
 H        -0.172638         2.256564        -1.286570
 H        -0.578188         4.400982         0.808942
 H        -1.608251         4.351675        -0.592053
 H        -3.295797         3.426906         0.832844
 H        -3.041035         0.907065        -0.035868
