19
Iteration:  4206
 O        -3.043215         1.942258         3.109060
 C        -2.241580         1.847346         2.002194
 C        -0.772365         1.369371         2.029723
 C        -0.772924         1.317812         0.465848
 O        -0.227415         0.073418         0.005944
 C        -0.048388         2.562941        -0.101753
 C        -1.092233         3.612769         0.349414
 C        -2.352021         2.852947         0.911683
 C        -2.313569         1.473212         0.397284
 H        -3.882075         2.486549         2.876488
 H        -0.085186         1.993875         2.531498
 H        -0.461438         0.323963         2.378576
 H         0.732677         0.183052        -0.169955
 H         1.079231         2.601877         0.251170
 H         0.022938         2.492900        -1.170781
 H        -0.659626         4.427424         1.018626
 H        -1.457651         4.262341        -0.480328
 H        -3.277194         3.396061         0.815282
 H        -3.146876         1.016335        -0.174768
