19
Iteration:    13charge 0 multiplicity 1
 O        -3.033250         1.768512         3.024754
 C        -2.233313         2.013457         1.892480
 C        -0.811330         1.634211         2.097300
 C        -0.754051         1.273526         0.567985
 O        -0.012389         0.066176         0.109441
 C        -0.140709         2.463591        -0.168440
 C        -1.124480         3.605944         0.261175
 C        -2.366610         2.936483         0.799348
 C        -2.325224         1.400952         0.429694
 H        -3.636220         2.585846         3.172461
 H        -0.259420         2.482107         2.683164
 H        -0.849647         0.721725         2.725130
 H        -0.118585        -0.651577         0.782703
 H         0.890669         2.484046         0.065115
 H        -0.211677         2.184926        -1.178210
 H        -0.663513         4.126431         1.112459
 H        -1.439008         4.403026        -0.401054
 H        -3.302421         3.503676         0.599759
 H        -3.178754         0.740334         0.093187
