19
Iteration:  4972
 O        -3.118978         1.963779         2.985653
 C        -2.203050         1.978772         1.962977
 C        -0.715511         1.458830         2.114272
 C        -0.670316         1.278886         0.555509
 O        -0.173868         0.071808         0.053811
 C        -0.224597         2.573364        -0.262804
 C        -1.009999         3.686582         0.476767
 C        -2.308451         2.829195         0.855492
 C        -2.280931         1.353690         0.507060
 H        -3.605498         1.058329         2.986686
 H        -0.027311         2.029233         2.680871
 H        -0.854993         0.373226         2.437058
 H        -0.511884         0.131194        -0.878355
 H         0.805703         2.826236        -0.410881
 H        -0.827127         2.273427        -1.253239
 H        -0.627440         3.944436         1.534825
 H        -1.216894         4.502490        -0.190335
 H        -3.255226         3.296696         0.704597
 H        -2.809496         0.968311        -0.381877
