19
Iteration:  4309charge 0 multiplicity 1
 O        -3.122972         1.773340         2.918257
 C        -2.179135         1.962425         1.965398
 C        -0.708653         1.454629         2.054262
 C        -0.788453         1.305092         0.481502
 O        -0.248311         0.019218         0.076679
 C        -0.123223         2.446295        -0.146796
 C        -1.105104         3.720938         0.332010
 C        -2.325821         3.035827         0.943611
 C        -2.306832         1.493733         0.474432
 H        -2.657201         1.475329         3.695331
 H         0.036217         2.137263         2.554936
 H        -0.634316         0.549592         2.602702
 H         0.751461         0.107172         0.082290
 H         0.835673         2.629551         0.231848
 H        -0.220289         2.332785        -1.282858
 H        -0.548504         4.241447         1.073192
 H        -1.262411         4.397797        -0.555097
 H        -3.335487         3.368186         0.759456
 H        -3.168277         0.928469         0.023769
