19
Iteration:  1807
 O        -3.191731         1.978920         2.926033
 C        -2.115943         1.856931         2.057286
 C        -0.678017         1.374609         2.187412
 C        -0.709414         1.292992         0.551635
 O        -0.175644         0.128047        -0.096726
 C        -0.147648         2.511819        -0.179042
 C        -1.075277         3.623296         0.178821
 C        -2.326768         2.956603         0.967510
 C        -2.337207         1.505124         0.584397
 H        -3.519080         1.065870         3.269926
 H         0.040031         1.987350         2.748281
 H        -0.780352         0.397061         2.697157
 H        -0.169311        -0.618999         0.516016
 H         0.927383         2.568081        -0.063359
 H        -0.321603         2.456006        -1.276999
 H        -0.568068         4.314272         0.851534
 H        -1.405469         4.242595        -0.661783
 H        -3.243314         3.548042         0.766578
 H        -2.976424         0.762403         0.064571
