19
Iteration:  2634charge 0 multiplicity 1
 O        -3.072771         1.852177         3.147735
 C        -2.224163         1.902164         2.052497
 C        -0.755430         1.471975         2.177548
 C        -0.751749         1.226008         0.471375
 O        -0.287502         0.041597        -0.029598
 C        -0.200005         2.510662        -0.323873
 C        -1.000595         3.683960         0.189056
 C        -2.200988         3.034370         0.913762
 C        -2.309510         1.472634         0.585935
 H        -3.712599         1.067052         2.996203
 H        -0.055731         2.133900         2.727834
 H        -0.576730         0.495135         2.673192
 H         0.606218         0.098376        -0.481873
 H         0.905894         2.629340        -0.174280
 H        -0.368750         2.468066        -1.420062
 H        -0.459544         4.228071         0.999163
 H        -1.491744         4.355610        -0.575928
 H        -3.186846         3.408205         0.844478
 H        -3.167472         1.073359         0.095471
