19
Iteration:  1142charge 0 multiplicity 1
 O        -3.091890         1.753328         2.948577
 C        -2.232705         1.938687         1.929868
 C        -0.782113         1.560417         2.110609
 C        -0.762520         1.302193         0.588713
 O        -0.252613         0.057010         0.040811
 C        -0.056160         2.482416        -0.194881
 C        -1.041026         3.610339         0.286146
 C        -2.300647         3.000445         0.854151
 C        -2.322409         1.583745         0.494607
 H        -2.446029         1.373052         3.583121
 H        -0.078465         2.211657         2.568350
 H        -0.790486         0.547899         2.554619
 H        -0.507501        -0.715727         0.617928
 H         1.021886         2.607384        -0.018706
 H        -0.325497         2.291651        -1.244828
 H        -0.555672         4.155136         1.091097
 H        -1.095376         4.356021        -0.475548
 H        -3.261525         3.526617         0.870434
 H        -3.061918         0.825035         0.146703
