19
Iteration:  3925
 O        -3.284937         1.666707         2.867921
 C        -2.113402         2.052073         2.009165
 C        -0.595596         1.441007         2.065341
 C        -0.725014         1.249636         0.503942
 O        -0.274493         0.004268         0.084346
 C        -0.151292         2.576769        -0.190734
 C        -1.007268         3.693390         0.284512
 C        -2.314763         2.983764         0.868599
 C        -2.300684         1.540914         0.576082
 H        -3.256569         2.247482         3.618978
 H         0.188984         2.098821         2.392468
 H        -0.685961         0.471317         2.566940
 H         0.547996        -0.289502         0.480075
 H         0.918197         2.739537        -0.213382
 H        -0.489327         2.327748        -1.221997
 H        -0.567224         4.331566         1.082002
 H        -1.446997         4.456878        -0.409034
 H        -3.247357         3.463640         0.984629
 H        -3.101141         0.836617         0.433370
