19
Iteration:   738charge 0 multiplicity 1
 O        -3.254688         1.926900         2.999676
 C        -2.249289         1.905018         1.993735
 C        -0.719713         1.444810         2.182102
 C        -0.638190         1.259776         0.491155
 O        -0.304066        -0.010656        -0.041604
 C        -0.121192         2.528140        -0.238868
 C        -0.992838         3.685905         0.482679
 C        -2.240809         2.972655         0.837182
 C        -2.203170         1.411182         0.535067
 H        -4.170031         2.187476         2.799378
 H        -0.056896         2.065565         2.726986
 H        -0.673336         0.385322         2.600072
 H         0.448215         0.025935        -0.689346
 H         0.947882         2.739872        -0.149280
 H        -0.260821         2.528044        -1.281017
 H        -0.447161         4.200925         1.301006
 H        -1.206148         4.366053        -0.402204
 H        -3.260715         3.323411         0.749133
 H        -2.981373         0.901376        -0.012586
