19
Iteration:  3785
 O        -3.002690         1.882412         3.019268
 C        -2.161623         1.986189         1.942179
 C        -0.761986         1.319893         2.098316
 C        -0.689744         1.234348         0.612642
 O        -0.214483         0.086899        -0.121256
 C        -0.080717         2.566928        -0.001128
 C        -1.205621         3.705904         0.205943
 C        -2.387897         2.922016         0.794030
 C        -2.321351         1.427677         0.568601
 H        -3.089101         2.788789         3.281599
 H         0.049645         1.700062         2.877903
 H        -1.004280         0.329712         2.384647
 H         0.004286        -0.529139         0.585279
 H         0.795152         2.855235         0.508578
 H         0.161636         2.460390        -1.054711
 H        -0.747620         4.527541         0.693240
 H        -1.653012         4.105479        -0.706041
 H        -3.329570         3.447626         0.662812
 H        -2.981919         0.726580         0.106569
