19
Iteration:   860
 O        -3.196609         2.016216         2.987499
 C        -2.151015         1.888550         2.014481
 C        -0.789093         1.370306         2.110242
 C        -0.701934         1.255023         0.497749
 O        -0.124447         0.036845        -0.079882
 C        -0.113454         2.564422        -0.098914
 C        -1.038245         3.671965         0.315324
 C        -2.322214         2.975242         0.842931
 C        -2.249637         1.433553         0.629260
 H        -3.828675         1.324583         2.858515
 H         0.028058         1.922776         2.525458
 H        -0.750237         0.343550         2.568960
 H        -0.835199        -0.536947        -0.461275
 H         0.878298         2.638456         0.286298
 H        -0.128233         2.484914        -1.161273
 H        -0.707118         4.468954         0.911671
 H        -1.218328         4.232736        -0.612206
 H        -3.349025         3.397766         0.873893
 H        -3.135094         0.852496         0.319066
