19
Iteration:  3114
 O        -3.121707         1.667286         3.104244
 C        -2.200658         1.811651         2.015207
 C        -0.770293         1.510745         2.051072
 C        -0.761861         1.391398         0.563047
 O        -0.223559         0.074946         0.162414
 C        -0.119616         2.468952        -0.250895
 C        -0.999150         3.704806         0.159590
 C        -2.333934         2.983699         0.851269
 C        -2.266113         1.544383         0.484186
 H        -2.905859         2.356284         3.843664
 H        -0.198568         2.301767         2.462322
 H        -0.579647         0.528669         2.570351
 H        -0.712031        -0.173519        -0.612964
 H         0.941432         2.694534        -0.269266
 H        -0.287026         2.094395        -1.241716
 H        -0.484888         4.441853         0.824902
 H        -1.362961         4.287774        -0.708137
 H        -3.166905         3.614539         0.942969
 H        -2.879620         0.859518        -0.187736
