19
Iteration:  2473
 O        -2.972141         1.954225         3.140317
 C        -2.178729         1.933685         1.976819
 C        -0.713866         1.468460         2.108846
 C        -0.786164         1.224829         0.509036
 O        -0.233851         0.064508        -0.123346
 C        -0.129473         2.455811        -0.007498
 C        -1.084631         3.707644         0.228837
 C        -2.385808         2.931873         0.735427
 C        -2.340737         1.438828         0.567518
 H        -2.746785         1.219067         3.826259
 H        -0.142173         2.396422         2.391290
 H        -0.611509         0.650835         2.929349
 H        -0.915489        -0.235888        -0.740415
 H         0.895246         2.677322         0.341124
 H         0.022896         2.201012        -1.074848
 H        -0.733427         4.359620         1.004977
 H        -1.344538         4.264882        -0.657264
 H        -3.358318         3.365091         0.734536
 H        -2.913427         0.751174        -0.092763
