19
Iteration:  3376
 O        -3.060666         1.808150         3.041025
 C        -2.190218         2.007751         1.986499
 C        -0.695098         1.511411         2.042460
 C        -0.799466         1.263840         0.494015
 O        -0.098072        -0.005786         0.057936
 C        -0.181976         2.511464        -0.167030
 C        -1.041001         3.670941         0.314204
 C        -2.321603         2.948407         0.835813
 C        -2.454082         1.390360         0.631806
 H        -3.864611         2.267685         2.949521
 H         0.176437         2.120012         2.248838
 H        -0.724817         0.482369         2.572236
 H         0.369575         0.222531        -0.787416
 H         0.931460         2.484158        -0.023893
 H        -0.334238         2.470338        -1.279288
 H        -0.506938         4.415473         0.892419
 H        -1.369699         4.312518        -0.497389
 H        -3.234131         3.610868         0.947143
 H        -3.277589         0.993557         0.114820
