19
Iteration:  1589
 O        -3.121168         1.949213         3.033335
 C        -2.093373         2.001928         1.993061
 C        -0.698177         1.278018         2.108247
 C        -0.779390         1.222499         0.551003
 O        -0.334215         0.033439        -0.072435
 C        -0.089588         2.584163        -0.025621
 C        -1.154234         3.713868         0.195999
 C        -2.317620         2.986713         0.786104
 C        -2.209916         1.407791         0.612030
 H        -3.684129         1.231892         2.804689
 H         0.153930         1.864089         2.587418
 H        -0.826358         0.315823         2.536677
 H         0.525018         0.177092         0.326277
 H         0.848981         2.773521         0.477138
 H         0.232151         2.473001        -1.104166
 H        -0.756319         4.679110         0.577954
 H        -1.477917         4.002330        -0.796517
 H        -3.242812         3.527577         0.715125
 H        -2.963426         0.774430         0.214176
