19
Iteration:  2267
 O        -3.161136         1.918352         3.156874
 C        -2.131925         1.923885         2.060837
 C        -0.656619         1.425934         2.107697
 C        -0.694269         1.245729         0.531807
 O        -0.320737         0.088800        -0.103780
 C        -0.223255         2.488205        -0.214660
 C        -1.122905         3.625458         0.159394
 C        -2.240185         3.003024         0.905940
 C        -2.214478         1.481689         0.629864
 H        -3.775922         1.146620         3.079734
 H         0.020847         2.187591         2.433043
 H        -0.509916         0.452865         2.536426
 H         0.623219         0.073139        -0.288921
 H         0.843964         2.638368        -0.055495
 H        -0.403868         2.179729        -1.259594
 H        -0.527602         4.427044         0.661835
 H        -1.534924         4.162818        -0.710506
 H        -3.304236         3.341010         0.886780
 H        -2.900992         0.833388         0.068037
