19
Iteration:  2802charge 0 multiplicity 1
 O        -3.151025         1.801998         3.036163
 C        -2.094658         1.786976         1.977698
 C        -0.716280         1.447663         2.118699
 C        -0.696282         1.300188         0.443580
 O        -0.335810         0.064395         0.065794
 C        -0.199442         2.566430        -0.308884
 C        -1.053881         3.731313         0.247073
 C        -2.257034         2.966760         0.962007
 C        -2.320233         1.545187         0.499669
 H        -2.576623         1.355509         3.775357
 H        -0.030570         2.138638         2.557028
 H        -0.564506         0.398456         2.465184
 H         0.008763        -0.328098         0.914676
 H         0.883406         2.658328        -0.237145
 H        -0.387417         2.456614        -1.387689
 H        -0.468240         4.156121         1.081778
 H        -1.430289         4.397146        -0.582672
 H        -3.166574         3.577774         1.041991
 H        -3.013079         1.071918        -0.180584
