19
Iteration:  1549charge 0 multiplicity 1
 O        -3.122943         1.972665         3.025705
 C        -2.245560         1.943949         1.967138
 C        -0.840513         1.334529         2.167673
 C        -0.781200         1.211430         0.500543
 O        -0.209356         0.034913        -0.062915
 C        -0.063495         2.511117        -0.079417
 C        -1.139509         3.670178         0.187190
 C        -2.238637         3.026432         0.967645
 C        -2.252013         1.468487         0.498119
 H        -2.655871         1.323454         3.666774
 H        -0.128481         2.027409         2.672657
 H        -0.774218         0.278886         2.554459
 H         0.744352         0.038789        -0.293968
 H         0.955817         2.684288         0.393043
 H         0.140758         2.514329        -1.160312
 H        -0.926033         4.674416         0.612509
 H        -1.653452         3.899497        -0.796691
 H        -3.278591         3.350474         0.921215
 H        -2.963748         0.975537        -0.118733
