19
Iteration:  1850
 O        -3.038185         1.798968         3.077877
 C        -2.242132         1.903591         1.896001
 C        -0.727109         1.656906         2.082914
 C        -0.716528         1.304342         0.443914
 O        -0.247197        -0.096716         0.150864
 C        -0.168775         2.574853        -0.216284
 C        -0.991175         3.642277         0.452773
 C        -2.342531         2.993570         0.754800
 C        -2.272118         1.500925         0.450881
 H        -3.258459         0.841485         3.251567
 H        -0.077715         2.428618         2.462498
 H        -0.525935         0.646604         2.538226
 H        -1.033976        -0.659755        -0.051647
 H         0.885610         2.850340        -0.154613
 H        -0.405279         2.524570        -1.300697
 H        -0.596429         4.203352         1.292144
 H        -1.104726         4.378017        -0.360344
 H        -3.320663         3.524002         0.776935
 H        -3.044900         0.986748        -0.126824
