19
Iteration:  3016charge 0 multiplicity 1
 O        -2.964517         1.738723         3.210145
 C        -2.267063         1.992212         1.961969
 C        -0.813128         1.456066         2.099989
 C        -0.718690         1.286238         0.558522
 O        -0.082480         0.059334         0.037479
 C        -0.228892         2.450630        -0.178477
 C        -1.060527         3.697692         0.183215
 C        -2.376995         2.992430         0.806890
 C        -2.324085         1.504981         0.541329
 H        -3.809793         2.308353         3.375634
 H        -0.021783         1.982178         2.630406
 H        -1.000948         0.390960         2.434349
 H        -0.074059         0.050653        -0.917000
 H         0.860093         2.545754        -0.015633
 H        -0.199332         2.241946        -1.293080
 H        -0.479716         4.270131         0.950938
 H        -1.461579         4.378949        -0.577759
 H        -3.360165         3.254823         0.462712
 H        -2.798609         1.117623        -0.315185
