19
Iteration:  4905
 O        -3.020696         1.811528         3.060587
 C        -2.176960         1.987354         1.932406
 C        -0.797105         1.389131         2.137405
 C        -0.680044         1.299980         0.571439
 O        -0.278740        -0.041284         0.051848
 C        -0.089632         2.595088        -0.006881
 C        -1.177034         3.760733         0.176605
 C        -2.343797         2.977323         0.826906
 C        -2.269055         1.502001         0.407783
 H        -3.011831         0.982112         3.458041
 H        -0.023311         1.705656         2.787901
 H        -0.829634         0.265446         2.266781
 H        -0.096924         0.254661        -0.842605
 H         0.838979         2.642597         0.525799
 H         0.172109         2.580765        -1.118215
 H        -0.678855         4.476825         0.882114
 H        -1.408370         4.154321        -0.814150
 H        -3.355721         3.428659         1.010911
 H        -2.992858         0.926492        -0.135951
