19
Iteration:  4860charge 0 multiplicity 1
 O        -3.187520         1.976074         2.947583
 C        -2.114930         1.933674         1.984758
 C        -0.686496         1.417782         2.029548
 C        -0.759397         1.229292         0.491763
 O        -0.117739         0.088074        -0.017503
 C        -0.094855         2.530590        -0.127226
 C        -1.102192         3.684558         0.366989
 C        -2.379089         2.919023         0.933361
 C        -2.353859         1.423126         0.577674
 H        -3.429515         1.091414         3.074997
 H         0.114313         1.936585         2.511917
 H        -0.677711         0.433169         2.622509
 H        -0.560735        -0.306181        -0.760429
 H         0.884668         2.754910         0.308772
 H         0.153013         2.371389        -1.219588
 H        -0.663255         4.295826         1.193750
 H        -1.439632         4.258134        -0.515303
 H        -3.241162         3.522564         1.277146
 H        -2.944085         0.845895        -0.095278
