19
Iteration:  2227charge 0 multiplicity 1
 O        -3.002735         1.838129         2.962881
 C        -2.131614         1.923306         1.949744
 C        -0.654703         1.499450         1.941821
 C        -0.770145         1.310279         0.438356
 O        -0.318328        -0.055557         0.282644
 C        -0.312882         2.528912        -0.237818
 C        -1.039594         3.717961         0.395590
 C        -2.343690         2.969827         0.886211
 C        -2.256022         1.509598         0.502135
 H        -2.867276         0.924488         3.284202
 H         0.148219         2.295742         2.188345
 H        -0.508478         0.608840         2.547801
 H        -0.118036        -0.168337        -0.679696
 H         0.791924         2.705755        -0.230601
 H        -0.801942         2.459777        -1.242720
 H        -0.535549         4.003272         1.359322
 H        -1.107696         4.561395        -0.346990
 H        -3.232040         3.593287         0.882220
 H        -3.109870         0.860571         0.167423
