19
Iteration:  3867charge 0 multiplicity 1
 O        -3.131946         1.679114         3.002765
 C        -2.180701         1.918992         1.999089
 C        -0.731620         1.416626         2.048422
 C        -0.722834         1.285094         0.511927
 O        -0.181492         0.045383         0.175732
 C        -0.188378         2.560684        -0.226390
 C        -1.016104         3.704029         0.286506
 C        -2.358991         3.071758         0.758300
 C        -2.253911         1.528980         0.519027
 H        -2.900250         2.508143         3.546551
 H         0.041463         1.965333         2.667536
 H        -0.875777         0.310293         2.482167
 H        -0.985588        -0.512672         0.158273
 H         0.964678         2.689284        -0.066258
 H        -0.374703         2.442926        -1.333200
 H        -0.449667         4.087799         1.188763
 H        -1.135550         4.528645        -0.430316
 H        -3.434347         3.411880         0.681772
 H        -2.980657         1.015286        -0.150380
