19
Iteration:  4580charge 0 multiplicity 1
 O        -3.060084         1.857439         3.096624
 C        -2.247823         1.867077         1.996518
 C        -0.806791         1.493884         2.122052
 C        -0.622590         1.306136         0.531880
 O        -0.378415         0.046062        -0.038738
 C        -0.122480         2.609813        -0.124571
 C        -1.039090         3.688228         0.290664
 C        -2.318792         2.921278         0.765510
 C        -2.234690         1.452486         0.518104
 H        -3.389142         0.893100         3.300393
 H        -0.096806         2.027544         2.779552
 H        -0.702863         0.446432         2.555034
 H         0.527471        -0.233490         0.146538
 H         1.039231         2.756309        -0.089134
 H        -0.265951         2.455308        -1.235916
 H        -0.555380         4.439532         0.973309
 H        -1.308903         4.203970        -0.658208
 H        -3.336012         3.521067         0.699003
 H        -2.775283         0.850538        -0.233417
