19
Iteration:  2301charge 0 multiplicity 1
 O        -2.947141         2.000573         3.080616
 C        -2.054523         2.014185         2.005141
 C        -0.746105         1.336220         2.066600
 C        -0.749428         1.198540         0.486203
 O        -0.299665         0.064720        -0.161912
 C        -0.156761         2.534171        -0.033569
 C        -1.260806         3.643063         0.194006
 C        -2.364570         2.926370         0.803980
 C        -2.302588         1.486421         0.618687
 H        -2.939994         1.104092         3.385771
 H        -0.051921         1.930758         2.676152
 H        -0.788024         0.386738         2.519884
 H         0.457311        -0.237989         0.393035
 H         0.688345         2.896748         0.587157
 H         0.238556         2.588276        -1.093314
 H        -0.724072         4.327779         0.908970
 H        -1.390748         4.112208        -0.784912
 H        -3.380146         3.346712         0.886610
 H        -3.125761         0.719177         0.479816
