19
Iteration:  3180charge 0 multiplicity 1
 O        -3.123125         1.828761         2.991517
 C        -2.204430         1.892794         2.019402
 C        -0.721845         1.601367         2.177318
 C        -0.725477         1.258583         0.615808
 O        -0.305185         0.023488        -0.008664
 C        -0.203778         2.538076        -0.255084
 C        -1.045670         3.624139         0.276309
 C        -2.300658         2.951493         0.761998
 C        -2.199670         1.369647         0.662035
 H        -2.963357         2.516447         3.589681
 H        -0.040953         2.357563         2.468888
 H        -0.439958         0.618472         2.665395
 H         0.045308         0.345320        -0.880819
 H         0.867277         2.680391        -0.164720
 H        -0.336262         2.291986        -1.287387
 H        -0.473758         4.109254         1.105163
 H        -1.342407         4.429864        -0.433751
 H        -3.338527         3.173582         0.575914
 H        -2.892214         0.875939        -0.088528
