19
Iteration:  2421charge 0 multiplicity 1
 O        -3.120081         1.828852         3.027145
 C        -2.136380         1.833008         1.990573
 C        -0.576930         1.487001         2.057053
 C        -0.751345         1.283057         0.495265
 O        -0.338721        -0.018050         0.281434
 C        -0.343543         2.574849        -0.399855
 C        -1.011557         3.720152         0.264999
 C        -2.183451         2.965607         0.967122
 C        -2.264190         1.524487         0.468621
 H        -3.523590         0.912341         3.210314
 H         0.057358         2.214209         2.612286
 H        -0.357121         0.573792         2.559605
 H        -0.146464         0.012615        -0.700026
 H         0.681526         2.871795        -0.539428
 H        -0.549590         2.353989        -1.471803
 H        -0.601764         4.304210         1.107782
 H        -1.466578         4.439477        -0.408959
 H        -3.094703         3.479483         1.091577
 H        -3.028229         1.082839        -0.148520
