19
Iteration:  1225
 O        -3.211142         2.008805         3.013028
 C        -2.215038         2.047707         1.985524
 C        -0.805895         1.325011         2.150773
 C        -0.711189         1.198677         0.558362
 O        -0.114435         0.141856        -0.159523
 C        -0.119946         2.512997        -0.153819
 C        -1.031804         3.595797         0.272520
 C        -2.272187         2.960740         0.892901
 C        -2.280664         1.467301         0.580856
 H        -3.045330         1.133879         3.281686
 H         0.073882         1.713151         2.630747
 H        -0.835921         0.320249         2.605093
 H        -0.457392        -0.637336         0.288014
 H         0.938033         2.568708         0.122277
 H        -0.245429         2.306194        -1.231473
 H        -0.723406         4.368968         0.999148
 H        -1.375530         4.077656        -0.674900
 H        -3.261834         3.396143         0.965010
 H        -3.193258         0.938134         0.267938
