19
Iteration:   641charge 0 multiplicity 1
 O        -3.278195         1.965405         2.812932
 C        -2.117819         1.904064         1.994445
 C        -0.664964         1.426250         2.161583
 C        -0.699803         1.250443         0.586562
 O        -0.242762         0.041802        -0.078904
 C        -0.085479         2.474523        -0.060503
 C        -1.047410         3.758287         0.388824
 C        -2.296571         2.892359         0.867195
 C        -2.305275         1.473591         0.506837
 H        -2.977102         1.444345         3.590222
 H         0.000352         2.061793         2.714072
 H        -0.641649         0.391025         2.631912
 H        -0.752446        -0.009370        -0.936134
 H         0.964796         2.400323         0.328967
 H        -0.003414         2.265355        -1.189744
 H        -0.573450         4.192694         1.242245
 H        -1.277321         4.447456        -0.471264
 H        -3.173975         3.477850         1.054815
 H        -3.205066         0.941898         0.304264
