19
Iteration:  4474charge 0 multiplicity 1
 O        -3.138562         1.823027         2.970457
 C        -2.162536         1.954168         1.957013
 C        -0.671215         1.508725         2.101276
 C        -0.709125         1.253744         0.496756
 O        -0.291098        -0.083102         0.023096
 C        -0.206851         2.593140        -0.168029
 C        -1.074331         3.701143         0.363741
 C        -2.304115         2.988271         0.861635
 C        -2.244662         1.492469         0.559022
 H        -3.544720         0.907479         2.853288
 H        -0.013398         2.260533         2.602240
 H        -0.668871         0.583532         2.579743
 H         0.618801         0.124843        -0.206638
 H         0.792393         2.692090         0.095821
 H        -0.347136         2.421269        -1.270835
 H        -0.541451         4.157830         1.216602
 H        -1.157419         4.447859        -0.458426
 H        -3.306002         3.598850         0.917839
 H        -3.067525         0.942218         0.079580
