19
Iteration:  4014
 O        -3.057881         1.937710         2.951109
 C        -2.107091         1.946183         1.949537
 C        -0.722462         1.213241         2.149473
 C        -0.735901         1.230862         0.575751
 O        -0.204797         0.063922        -0.032754
 C        -0.128571         2.564886        -0.012171
 C        -1.174566         3.687252         0.324480
 C        -2.374306         2.949116         0.741730
 C        -2.308047         1.460078         0.556748
 H        -3.523629         2.690944         3.228555
 H         0.003755         1.756476         2.707770
 H        -0.949346         0.299591         2.548146
 H         0.458892         0.488712        -0.573172
 H         0.851121         2.852506         0.205806
 H        -0.192073         2.275861        -1.103763
 H        -0.701739         4.340701         1.044547
 H        -1.458997         4.309741        -0.569254
 H        -3.345070         3.483795         0.809488
 H        -2.906459         0.727604        -0.055282
