19
Iteration:  3194charge 0 multiplicity 1
 O        -3.136368         1.898892         3.158986
 C        -2.234939         1.931996         1.978842
 C        -0.782414         1.569747         2.136759
 C        -0.665079         1.292292         0.489873
 O        -0.249080         0.052351        -0.054821
 C        -0.103797         2.438797        -0.226262
 C        -1.069445         3.672401         0.291534
 C        -2.338718         2.805923         0.865376
 C        -2.234376         1.357151         0.502704
 H        -3.018003         2.841479         3.592037
 H        -0.221117         2.386859         2.639504
 H        -0.725425         0.715611         2.829507
 H         0.228848         0.171990        -0.863809
 H         0.939592         2.615037         0.022713
 H        -0.378871         2.351447        -1.296515
 H        -0.660200         4.311118         1.081231
 H        -1.306736         4.312474        -0.598098
 H        -3.253225         3.451924         0.758384
 H        -2.875471         0.668964         0.068400
