19
Iteration:  3459charge 0 multiplicity 1
 O        -3.053874         1.859317         3.034141
 C        -2.126792         2.048786         1.968943
 C        -0.755675         1.316787         2.028636
 C        -0.850163         1.229344         0.456721
 O        -0.033053         0.067171         0.049524
 C        -0.103825         2.538420        -0.042655
 C        -1.175962         3.609073         0.227857
 C        -2.417491         2.950755         0.845596
 C        -2.324149         1.498154         0.605439
 H        -3.181082         2.773340         3.518618
 H         0.191727         1.823017         2.278604
 H        -0.885991         0.437898         2.604456
 H        -0.342727        -0.039369        -0.847088
 H         0.892874         2.480367         0.423167
 H        -0.012714         2.625403        -1.085018
 H        -0.723020         4.402548         0.850264
 H        -1.514309         3.915196        -0.780145
 H        -3.408862         3.382199         0.725123
 H        -3.148904         0.953436         0.254602
