19
Iteration:  1994
 O        -3.057126         1.850587         2.993667
 C        -2.171340         1.916477         1.948900
 C        -0.718377         1.491736         2.097567
 C        -0.774646         1.274987         0.478184
 O        -0.210364         0.051041         0.020719
 C        -0.180366         2.466349        -0.178056
 C        -1.068531         3.718198         0.290809
 C        -2.365756         3.018039         0.805285
 C        -2.337412         1.472392         0.586832
 H        -2.672204         1.211556         3.695916
 H         0.150815         2.088774         2.446452
 H        -0.780252         0.441049         2.429824
 H        -0.078640        -0.463421         0.809226
 H         0.750816         2.507860         0.346042
 H         0.014774         2.471524        -1.272974
 H        -0.595926         4.283157         1.135417
 H        -1.310997         4.298235        -0.575255
 H        -3.333340         3.518196         0.722216
 H        -3.051892         0.803415         0.032483
