19
Iteration:  3946
 O        -3.092854         1.777244         2.907411
 C        -2.169101         1.933106         1.974767
 C        -0.761050         1.332360         2.176686
 C        -0.679670         1.309811         0.587823
 O        -0.310189         0.011665         0.028303
 C        -0.177156         2.553133        -0.146683
 C        -1.149699         3.738935         0.243570
 C        -2.291748         2.997425         0.856266
 C        -2.183080         1.497002         0.559470
 H        -3.146711         2.651612         3.329987
 H        -0.077758         1.932581         2.761850
 H        -0.922350         0.210242         2.346570
 H         0.663321        -0.101221        -0.021892
 H         0.871423         2.650125         0.206452
 H        -0.177654         2.362616        -1.258843
 H        -0.750091         4.526046         0.935207
 H        -1.548024         4.374797        -0.615278
 H        -3.289741         3.343297         0.811030
 H        -2.819477         0.956625        -0.126836
