19
Iteration:   154
 O        -2.995878         2.029455         3.061686
 C        -2.201507         1.863131         1.861479
 C        -0.789921         1.414251         2.027262
 C        -0.692678         1.280425         0.542327
 O        -0.146987         0.035896         0.138045
 C        -0.153185         2.554422        -0.102994
 C        -1.134362         3.728537         0.318226
 C        -2.372589         2.884900         0.743521
 C        -2.315423         1.414436         0.402263
 H        -3.604640         1.292784         3.124851
 H        -0.024384         1.996403         2.662273
 H        -0.866306         0.375015         2.468830
 H         0.057715        -0.508698         0.939901
 H         0.887369         2.660598         0.246989
 H         0.005555         2.375553        -1.193726
 H        -0.770684         4.286410         1.158430
 H        -1.432781         4.447933        -0.403593
 H        -3.429559         3.303946         0.748397
 H        -3.192117         0.930137        -0.095723
