19
Iteration:  3486charge 0 multiplicity 1
 O        -3.175256         1.752600         3.005515
 C        -2.151900         1.954827         1.981132
 C        -0.694700         1.448603         2.131276
 C        -0.710734         1.339225         0.593326
 O        -0.162745         0.022015         0.099070
 C        -0.202693         2.527345        -0.220479
 C        -1.093788         3.650096         0.158060
 C        -2.304149         2.973605         0.863716
 C        -2.307421         1.480628         0.549046
 H        -2.962841         2.372964         3.811331
 H         0.056164         2.085876         2.638585
 H        -0.582937         0.392592         2.631155
 H        -0.451409         0.307521        -0.771502
 H         0.951167         2.620474        -0.228500
 H        -0.436482         2.370352        -1.381310
 H        -0.477088         4.144434         0.914645
 H        -1.398945         4.335359        -0.621582
 H        -3.231509         3.532531         1.043376
 H        -3.053552         0.821876        -0.015064
