19
Iteration:  4043charge 0 multiplicity 1
 O        -3.204707         1.777934         3.044907
 C        -2.238655         1.869016         1.989794
 C        -0.794881         1.434480         2.089399
 C        -0.722776         1.322618         0.478835
 O        -0.227265         0.008030         0.116371
 C        -0.079161         2.570080        -0.293094
 C        -1.039092         3.681858         0.323967
 C        -2.269988         2.937508         0.931453
 C        -2.236686         1.489420         0.487524
 H        -3.358268         2.633846         3.472012
 H        -0.135096         2.104742         2.766016
 H        -0.679330         0.318995         2.529150
 H         0.230740         0.152680        -0.744215
 H         1.003233         2.836418        -0.013413
 H        -0.270752         2.456584        -1.396034
 H        -0.407787         4.434846         0.829572
 H        -1.509561         4.349818        -0.411358
 H        -3.155384         3.505311         0.860778
 H        -2.816287         0.836979        -0.196938
