19
Iteration:  1084
 O        -3.108625         1.854498         2.954805
 C        -2.124693         1.907346         1.971598
 C        -0.684682         1.463980         2.104855
 C        -0.767547         1.257723         0.492671
 O        -0.234970         0.082577         0.042962
 C        -0.185759         2.474820        -0.191917
 C        -1.128049         3.676200         0.358744
 C        -2.237628         2.920138         0.897582
 C        -2.260813         1.492262         0.544585
 H        -3.685687         2.616906         2.835836
 H         0.036977         2.075348         2.790469
 H        -0.732742         0.579611         2.672227
 H        -0.762123        -0.646665        -0.281693
 H         0.825642         2.700283         0.115943
 H        -0.028412         2.501937        -1.276553
 H        -0.510776         4.163164         1.161161
 H        -1.350792         4.269206        -0.523997
 H        -3.249199         3.310542         0.885261
 H        -2.949707         1.001955        -0.116204
