19
Iteration:  3066
 O        -3.114122         1.946782         2.936796
 C        -2.083815         1.978713         1.902243
 C        -0.568553         1.330328         2.014702
 C        -0.728561         1.186317         0.502340
 O        -0.153973        -0.035683         0.042257
 C        -0.254090         2.549074        -0.063179
 C        -1.207875         3.710177         0.353943
 C        -2.450583         3.019344         0.879207
 C        -2.264837         1.388062         0.604775
 H        -3.038261         2.799758         3.389027
 H         0.342913         1.909126         2.341884
 H        -0.626246         0.358924         2.460923
 H        -0.049610         0.013336        -0.956230
 H         0.776789         2.795972         0.260388
 H        -0.080905         2.650673        -1.132320
 H        -0.907832         4.431006         1.135029
 H        -1.401211         4.295299        -0.560545
 H        -3.527683         3.396912         0.912324
 H        -3.077686         0.696485         0.519408
