19
Iteration:  3592charge 0 multiplicity 1
 O        -3.149023         1.970759         2.990128
 C        -2.129001         1.798800         2.053878
 C        -0.698249         1.325391         2.123151
 C        -0.699181         1.271961         0.528101
 O        -0.138147         0.041291         0.010498
 C        -0.151268         2.583408        -0.136416
 C        -1.172844         3.652327         0.199893
 C        -2.341185         2.956457         0.880881
 C        -2.280422         1.482050         0.561368
 H        -3.044223         2.972727         3.206097
 H         0.093723         1.772494         2.737880
 H        -0.849908         0.196219         2.314183
 H        -0.693013        -0.052121        -0.767967
 H         0.843071         2.827538         0.328008
 H        -0.159353         2.512001        -1.188349
 H        -0.594147         4.357795         0.887321
 H        -1.599402         4.239893        -0.630329
 H        -3.399572         3.258434         1.008808
 H        -2.910879         0.751830        -0.068696
