19
Iteration:  4939charge 0 multiplicity 1
 O        -3.183055         1.910949         2.978692
 C        -2.148874         1.899408         2.038670
 C        -0.712072         1.443773         2.029638
 C        -0.787068         1.291304         0.492495
 O        -0.101876         0.052180         0.067969
 C        -0.146889         2.473584        -0.118690
 C        -1.064561         3.703214         0.281907
 C        -2.308750         2.920808         0.946198
 C        -2.415443         1.468943         0.469809
 H        -2.849124         1.167729         3.471713
 H         0.080832         1.928257         2.535563
 H        -0.682323         0.321463         2.247070
 H        -0.005435         0.033802        -0.882051
 H         0.816076         2.621933         0.308480
 H         0.017860         2.601320        -1.235980
 H        -0.705640         4.416870         1.122980
 H        -1.265128         4.408441        -0.518113
 H        -3.206888         3.525621         1.027268
 H        -3.220717         1.031207        -0.136698
