19
Iteration:  1606charge 0 multiplicity 1
 O        -3.034066         1.932270         2.971371
 C        -2.111002         2.016057         1.952869
 C        -0.725179         1.450588         2.103069
 C        -0.640866         1.227167         0.541117
 O        -0.347416        -0.079517        -0.028840
 C        -0.088577         2.586066        -0.040080
 C        -1.188302         3.705075         0.251187
 C        -2.343423         2.934181         0.844775
 C        -2.284003         1.501021         0.546777
 H        -3.783830         1.414608         2.679434
 H         0.045000         1.933078         2.664785
 H        -0.696224         0.299379         2.479735
 H         0.472020        -0.535823         0.041569
 H         0.800696         2.996321         0.532302
 H         0.063557         2.433261        -1.089719
 H        -0.953478         4.289930         1.138253
 H        -1.387269         4.343711        -0.663279
 H        -3.416487         3.211262         1.012651
 H        -3.042567         0.811872         0.086150
