19
Iteration:  4089charge 0 multiplicity 1
 O        -3.121476         1.598193         2.830922
 C        -2.153672         2.055123         1.919404
 C        -0.722544         1.503208         2.144292
 C        -0.724291         1.310740         0.476945
 O        -0.252120         0.061840         0.232048
 C        -0.185769         2.548248        -0.262766
 C        -0.976128         3.655030         0.371345
 C        -2.326813         3.058205         0.815107
 C        -2.284499         1.464604         0.579305
 H        -2.974155         1.718780         3.814480
 H         0.232072         2.073119         2.483142
 H        -0.755276         0.530515         2.668497
 H        -0.727927        -0.341210        -0.551502
 H         0.869176         2.506146        -0.196614
 H        -0.519216         2.434394        -1.362711
 H        -0.646066         4.130292         1.280013
 H        -1.106900         4.537825        -0.267834
 H        -3.287686         3.623243         0.745641
 H        -3.198787         0.958283         0.216884
