19
Iteration:   836
 O        -3.106511         1.892747         2.975349
 C        -2.156984         1.958770         1.992685
 C        -0.781799         1.369907         2.132238
 C        -0.711982         1.328636         0.560797
 O        -0.282852         0.108610         0.002275
 C        -0.084093         2.481727        -0.051745
 C        -1.072143         3.654399         0.268163
 C        -2.336710         2.946913         0.808384
 C        -2.232710         1.499618         0.425027
 H        -3.007428         0.975302         3.285181
 H        -0.058670         2.081260         2.540333
 H        -0.544205         0.372993         2.647344
 H        -0.896088        -0.598634         0.316274
 H         0.906623         2.581701         0.438321
 H         0.091363         2.223319        -1.075197
 H        -0.710332         4.469269         0.895374
 H        -1.405556         4.285231        -0.594917
 H        -3.298577         3.454253         1.018257
 H        -2.909367         1.141197        -0.381541
