19
Iteration:  1729charge 0 multiplicity 1
 O        -3.070885         2.004833         3.026235
 C        -2.240674         1.948722         1.973406
 C        -0.744783         1.496535         2.083071
 C        -0.717307         1.204959         0.568814
 O        -0.334116        -0.005141        -0.062144
 C        -0.024328         2.501027        -0.059988
 C        -1.141293         3.715890         0.375309
 C        -2.399813         2.875679         0.798088
 C        -2.212364         1.391731         0.443116
 H        -2.835865         1.169005         3.521810
 H        -0.054236         2.248439         2.432290
 H        -0.698057         0.579705         2.722218
 H         0.620762         0.010715        -0.023720
 H         0.963978         2.792536         0.323766
 H         0.023376         2.643062        -1.143227
 H        -0.771044         4.466587         1.070613
 H        -1.236987         4.285249        -0.540585
 H        -3.406997         3.226743         0.564059
 H        -2.948011         0.846532        -0.174294
