19
Iteration:   132charge 0 multiplicity 1
 O        -2.956161         1.890162         3.125844
 C        -2.195387         1.953795         1.935299
 C        -0.841879         1.419520         2.082059
 C        -0.751277         1.266735         0.540497
 O        -0.124897         0.050194         0.108967
 C        -0.141960         2.578006        -0.046766
 C        -1.134247         3.661730         0.232582
 C        -2.391160         2.925904         0.706906
 C        -2.244375         1.447855         0.412159
 H        -3.927894         1.857985         2.884037
 H        -0.042803         2.157194         2.438641
 H        -0.863821         0.537878         2.740603
 H        -0.518786        -0.751560         0.461588
 H         0.886663         2.694274         0.325370
 H         0.068513         2.464603        -1.148670
 H        -0.850807         4.483205         0.856438
 H        -1.373159         4.102787        -0.712570
 H        -3.412008         3.411231         0.759357
 H        -2.832807         0.834795        -0.346924
