19
Iteration:  3121
 O        -3.122435         1.635942         3.086152
 C        -2.186119         1.863543         1.983088
 C        -0.759325         1.465262         2.098040
 C        -0.766737         1.327001         0.553705
 O        -0.189413         0.045566         0.227666
 C        -0.143138         2.500536        -0.302447
 C        -1.020028         3.718920         0.138339
 C        -2.274268         3.022190         0.860812
 C        -2.317991         1.567391         0.464192
 H        -3.047308         2.298449         3.859655
 H        -0.103506         2.319911         2.482469
 H        -0.355851         0.520914         2.376563
 H        -0.667656        -0.288431        -0.558045
 H         0.935232         2.699059        -0.106736
 H        -0.460622         2.254806        -1.339742
 H        -0.607664         4.452468         0.854818
 H        -1.408175         4.316393        -0.690919
 H        -3.202128         3.615656         1.089123
 H        -3.058403         1.194101        -0.164952
