19
Iteration:  3571charge 0 multiplicity 1
 O        -3.101197         1.764880         3.104388
 C        -2.221525         1.969862         2.006333
 C        -0.770939         1.389514         2.095597
 C        -0.701574         1.303082         0.539618
 O        -0.183234         0.097144         0.088815
 C        -0.139812         2.477356        -0.233031
 C        -1.058998         3.691921         0.228250
 C        -2.278284         2.954095         0.832096
 C        -2.296411         1.445795         0.503839
 H        -3.227628         2.565494         3.565211
 H        -0.217700         2.221025         2.497635
 H        -0.831982         0.442442         2.761719
 H        -0.345118         0.029983        -0.876297
 H         0.926756         2.645841         0.038950
 H        -0.406791         2.391586        -1.218312
 H        -0.530306         4.419616         0.901568
 H        -1.471190         4.198906        -0.654536
 H        -3.251662         3.482478         0.768905
 H        -3.056415         0.899634        -0.176891
