19
Iteration:  3772
 O        -3.009546         1.849509         3.036264
 C        -2.083237         1.970809         1.960302
 C        -0.751109         1.295460         2.092094
 C        -0.765327         1.242084         0.489818
 O        -0.134332         0.059062         0.005663
 C        -0.176184         2.564825        -0.009014
 C        -1.217172         3.685805         0.190069
 C        -2.372147         2.968564         0.774624
 C        -2.290051         1.515737         0.483901
 H        -3.234895         2.713191         3.490377
 H         0.138115         1.918833         2.486609
 H        -0.883711         0.381175         2.739500
 H        -0.462269        -0.741371         0.492843
 H         0.750618         2.736336         0.511173
 H         0.099580         2.432347        -1.051921
 H        -1.015613         4.387368         1.013199
 H        -1.305679         4.244913        -0.769047
 H        -3.398784         3.393830         1.038521
 H        -3.093990         0.952599        -0.050352
