19
Iteration:  4529
 O        -3.126862         2.033511         2.990155
 C        -2.190977         1.937418         2.009487
 C        -0.758398         1.276829         2.051858
 C        -0.732643         1.219363         0.473864
 O        -0.154619        -0.039014        -0.086129
 C        -0.064338         2.593116        -0.095435
 C        -1.181670         3.733239         0.353362
 C        -2.327976         2.941664         0.909901
 C        -2.336990         1.453559         0.516805
 H        -2.989183         1.216998         3.445597
 H         0.009435         1.971247         2.472287
 H        -0.706928         0.389782         2.629110
 H         0.765805         0.203875         0.219866
 H         0.934706         2.607353         0.115993
 H        -0.047869         2.432520        -1.156047
 H        -0.885041         4.473749         1.099289
 H        -1.507933         4.383149        -0.481056
 H        -3.357109         3.482055         0.879101
 H        -3.179923         0.944289         0.029087
