19
Iteration:  2358charge 0 multiplicity 1
 O        -2.957406         2.003410         3.115154
 C        -2.161533         1.931059         1.958037
 C        -0.714031         1.436097         2.033948
 C        -0.772794         1.242584         0.500829
 O        -0.288824         0.037765        -0.051411
 C        -0.167114         2.495542        -0.146730
 C        -1.125992         3.671533         0.309664
 C        -2.410634         2.942531         0.862036
 C        -2.307493         1.398900         0.533540
 H        -3.014911         1.061091         3.492656
 H        -0.022795         2.071264         2.615327
 H        -0.850917         0.469129         2.453264
 H         0.668083         0.074623         0.075195
 H         0.913053         2.765190         0.015833
 H        -0.311932         2.458573        -1.264211
 H        -0.581386         4.348306         1.077781
 H        -1.224722         4.365906        -0.565240
 H        -3.370854         3.403535         0.905689
 H        -2.933590         0.786671        -0.080228
