19
Iteration:  4364charge 0 multiplicity 1
 O        -3.088171         2.101304         2.995329
 C        -2.189628         1.864323         2.010488
 C        -0.715091         1.369539         2.041655
 C        -0.765759         1.274030         0.514709
 O        -0.200234         0.051704        -0.093431
 C        -0.159034         2.560067        -0.025230
 C        -1.130231         3.634245         0.419947
 C        -2.278271         2.833760         0.845539
 C        -2.326116         1.411742         0.487736
 H        -3.648884         1.292798         3.205107
 H        -0.032581         2.148207         2.432281
 H        -0.595941         0.461810         2.531808
 H         0.767211         0.182458        -0.233961
 H         0.860753         2.725984         0.254193
 H        -0.177873         2.539512        -1.203073
 H        -0.801832         4.384983         1.101284
 H        -1.437618         4.135472        -0.548519
 H        -3.161146         3.398705         1.017588
 H        -2.970127         0.791369        -0.163436
