19
Iteration:  4197charge 0 multiplicity 1
 O        -2.999028         1.970681         3.127367
 C        -2.245101         1.778423         1.969520
 C        -0.827115         1.359509         2.114246
 C        -0.735957         1.315860         0.553803
 O        -0.228808         0.076115        -0.016834
 C        -0.062852         2.558482        -0.140848
 C        -1.052346         3.650450         0.322539
 C        -2.363513         2.844008         0.920154
 C        -2.331898         1.496896         0.343010
 H        -3.834100         2.531013         2.868099
 H         0.012514         1.910893         2.492903
 H        -0.888358         0.235669         2.343876
 H         0.621541         0.457067        -0.328350
 H         0.887256         2.841301         0.377929
 H         0.034776         2.636471        -1.228341
 H        -0.629809         4.338851         1.041279
 H        -1.402198         4.046813        -0.644611
 H        -3.376592         3.298077         0.873088
 H        -2.933257         0.784693        -0.183097
