19
Iteration:  3162
 O        -3.172622         1.724754         2.873808
 C        -2.082244         2.065576         2.006565
 C        -0.551044         1.504753         2.092830
 C        -0.695431         1.271724         0.525205
 O        -0.276239         0.003657         0.173616
 C        -0.247962         2.451090        -0.228521
 C        -1.122752         3.676604         0.307808
 C        -2.354968         2.958566         0.823605
 C        -2.305528         1.512529         0.583583
 H        -3.069629         2.226519         3.649634
 H         0.250747         2.222594         2.431466
 H        -0.565244         0.557128         2.666845
 H         0.032468         0.047397        -0.765743
 H         0.864089         2.548017        -0.304854
 H        -0.511767         2.391303        -1.345671
 H        -0.589381         4.171078         1.112910
 H        -1.176893         4.408596        -0.512597
 H        -3.295170         3.593924         0.913786
 H        -3.023579         0.758285         0.427353
