19
Iteration:  1937charge 0 multiplicity 1
 O        -3.073127         2.094861         3.103727
 C        -2.163748         1.865066         2.000545
 C        -0.799969         1.350036         2.132586
 C        -0.704444         1.269634         0.580829
 O        -0.289413         0.123489        -0.118276
 C        -0.073378         2.545488        -0.077097
 C        -1.124933         3.674295         0.218141
 C        -2.277312         2.824709         0.811307
 C        -2.322653         1.353742         0.527973
 H        -3.582813         1.313426         3.173739
 H         0.049653         1.892267         2.526742
 H        -0.656748         0.350042         2.621773
 H         0.695689         0.200171        -0.306279
 H         0.962864         2.818002         0.219157
 H        -0.046301         2.297031        -1.143278
 H        -0.821593         4.508762         0.885460
 H        -1.545299         4.244247        -0.643340
 H        -3.196661         3.423247         0.881637
 H        -3.044183         0.748301         0.049694
