19
Iteration:  4104charge 0 multiplicity 1
 O        -3.193756         1.656317         2.923132
 C        -2.178137         1.904094         1.991189
 C        -0.740084         1.512481         2.105125
 C        -0.670495         1.328279         0.577657
 O        -0.259595        -0.037820         0.171310
 C        -0.156140         2.570811        -0.308024
 C        -1.032993         3.737746         0.339889
 C        -2.288961         2.995260         0.839797
 C        -2.226956         1.575585         0.514204
 H        -2.830412         2.008986         3.698955
 H        -0.178030         2.153506         2.713587
 H        -0.603809         0.474510         2.371497
 H        -0.902982        -0.260754        -0.518371
 H         0.897147         2.930671        -0.232380
 H        -0.351265         2.342694        -1.354489
 H        -0.395680         4.031418         1.201287
 H        -1.298266         4.483590        -0.434736
 H        -3.295717         3.412399         0.748648
 H        -2.842466         0.906921        -0.056668
