19
Iteration:   189charge 0 multiplicity 1
 O        -3.315003         1.950869         2.921400
 C        -2.211798         1.954460         1.961132
 C        -0.683436         1.499293         2.134855
 C        -0.702225         1.232206         0.585764
 O        -0.176738         0.068890        -0.005043
 C        -0.227396         2.450735        -0.191846
 C        -1.026482         3.715356         0.333373
 C        -2.272050         2.887197         0.793930
 C        -2.240856         1.406234         0.599311
 H        -3.169428         1.432432         3.696156
 H         0.097096         2.172666         2.476962
 H        -0.594133         0.507739         2.768767
 H         0.816204         0.004634         0.044624
 H         0.836461         2.481565         0.043860
 H        -0.393574         2.177773        -1.216600
 H        -0.447612         4.257552         1.081563
 H        -1.116788         4.447063        -0.483574
 H        -3.301593         3.290623         0.638504
 H        -3.078892         1.047642         0.046832
