19
Iteration:  3753charge 0 multiplicity 1
 O        -3.072110         1.795416         3.049097
 C        -2.182759         1.912707         1.955127
 C        -0.736770         1.453236         1.982593
 C        -0.755766         1.279553         0.523710
 O        -0.104911         0.061806         0.115728
 C        -0.138285         2.529588        -0.158679
 C        -1.089905         3.695809         0.284375
 C        -2.337601         2.970366         0.890591
 C        -2.363775         1.440353         0.495145
 H        -3.092318         2.718520         3.498234
 H        -0.028325         2.213293         2.381622
 H        -0.758018         0.471699         2.298060
 H        -0.777989        -0.640020        -0.096057
 H         0.858180         2.598918         0.221211
 H        -0.075020         2.464019        -1.252771
 H        -0.600677         4.442003         0.874363
 H        -1.540563         4.165577        -0.572770
 H        -3.300807         3.435945         0.716087
 H        -3.165188         0.907621        -0.011448
