19
Iteration:  1579charge 0 multiplicity 1
 O        -3.128919         1.964075         3.048173
 C        -2.163793         1.956090         2.020910
 C        -0.725166         1.256062         2.128519
 C        -0.766201         1.242370         0.571114
 O        -0.278074         0.155805        -0.071017
 C        -0.017563         2.493149        -0.033441
 C        -1.127409         3.659804         0.097924
 C        -2.291002         2.983077         0.833857
 C        -2.318235         1.505981         0.589085
 H        -3.547603         1.073884         3.061376
 H         0.098262         1.860217         2.643330
 H        -0.602339         0.262504         2.390668
 H         0.656601        -0.004445         0.014503
 H         0.877560         2.755180         0.494952
 H         0.092015         2.239914        -1.117665
 H        -0.926014         4.613690         0.660355
 H        -1.462783         3.837640        -0.923813
 H        -3.311667         3.297895         0.894863
 H        -3.033818         0.877236         0.115332
