19
Iteration:  3368
 O        -3.060548         1.776562         3.074143
 C        -2.181204         1.970526         1.973007
 C        -0.743093         1.536730         1.977305
 C        -0.775721         1.236328         0.544793
 O        -0.129366         0.055152         0.119656
 C        -0.220295         2.490122        -0.244374
 C        -1.033898         3.647158         0.333050
 C        -2.276828         2.977038         0.862952
 C        -2.366808         1.460140         0.550207
 H        -3.880912         2.235145         2.869401
 H         0.091099         2.164732         2.330362
 H        -0.601789         0.635901         2.599532
 H         0.281762         0.098345        -0.765164
 H         0.816943         2.315091        -0.086722
 H        -0.505100         2.334567        -1.251772
 H        -0.580274         4.249566         1.161201
 H        -1.412272         4.202533        -0.578549
 H        -3.279569         3.420612         1.018144
 H        -3.289533         1.091895         0.013243
