19
Iteration:  3597
 O        -3.141193         2.011155         2.949262
 C        -2.109422         1.862494         2.042109
 C        -0.672225         1.247161         2.082875
 C        -0.689745         1.295611         0.529545
 O        -0.148906         0.045762         0.006585
 C        -0.158132         2.562362        -0.109957
 C        -1.200138         3.682830         0.229490
 C        -2.358851         2.916231         0.910523
 C        -2.271238         1.429316         0.575152
 H        -3.117430         2.890872         3.224985
 H         0.042086         1.857270         2.680101
 H        -0.866259         0.241649         2.445928
 H        -0.666930        -0.189139        -0.801939
 H         0.709071         2.858894         0.460572
 H        -0.089277         2.622479        -1.259237
 H        -0.674013         4.358274         0.851007
 H        -1.589937         4.194358        -0.661123
 H        -3.326187         3.398727         1.026817
 H        -2.836056         0.777669        -0.011840
