19
Iteration:  1959charge 0 multiplicity 1
 O        -2.948576         2.072511         3.108641
 C        -2.175800         1.895887         1.928900
 C        -0.739374         1.361983         2.056190
 C        -0.687795         1.283955         0.485986
 O        -0.308151        -0.016852        -0.013754
 C        -0.127542         2.558305        -0.065091
 C        -1.202557         3.663344         0.294998
 C        -2.411313         2.891831         0.817349
 C        -2.232145         1.477087         0.449333
 H        -3.514464         1.237101         3.330893
 H         0.001302         1.780159         2.783175
 H        -0.803620         0.269028         2.399149
 H         0.481308        -0.305585         0.427213
 H         0.728907         2.899325         0.543078
 H         0.230403         2.585197        -1.095163
 H        -1.045116         4.490862         1.002973
 H        -1.415989         4.252338        -0.636857
 H        -3.435165         3.289516         0.719145
 H        -2.780714         0.907877        -0.245023
