19
Iteration:   583charge 0 multiplicity 1
 O        -3.019974         1.870495         3.007028
 C        -2.283314         1.890245         1.874709
 C        -0.836130         1.263688         2.022023
 C        -0.722056         1.337214         0.511553
 O        -0.170890         0.022324         0.285451
 C        -0.175623         2.555320        -0.173901
 C        -0.976513         3.619356         0.378715
 C        -2.297328         3.013278         0.884683
 C        -2.382714         1.634820         0.373412
 H        -3.767709         1.227707         2.934852
 H        -0.274192         2.005124         2.583093
 H        -0.534485         0.203945         2.362990
 H        -0.028577         0.042460        -0.660517
 H         0.957784         2.597341        -0.029191
 H        -0.344297         2.256455        -1.215702
 H        -0.335056         4.169825         1.139334
 H        -0.990261         4.463288        -0.346464
 H        -3.128834         3.747427         0.889494
 H        -2.995325         1.113954        -0.416175
