19
Iteration:   910charge 0 multiplicity 1
 O        -3.072102         1.955239         3.027115
 C        -2.208219         1.898971         1.917598
 C        -0.809072         1.436491         2.060153
 C        -0.764656         1.308805         0.579061
 O        -0.204472         0.012607         0.135811
 C        -0.102207         2.485120        -0.258509
 C        -1.044983         3.711347         0.400873
 C        -2.254444         2.982573         0.843652
 C        -2.372770         1.427161         0.436815
 H        -3.363493         0.979829         3.157834
 H        -0.126057         2.037333         2.727565
 H        -0.735776         0.386691         2.422437
 H         0.135858         0.010475        -0.761783
 H         1.000747         2.547884        -0.009085
 H        -0.470907         2.297151        -1.326145
 H        -0.608550         4.296971         1.299057
 H        -1.224336         4.615487        -0.204475
 H        -3.215888         3.502086         0.949507
 H        -2.870116         0.718790        -0.249048
