19
Iteration:    77charge 0 multiplicity 1
 O        -3.279124         1.924695         2.826133
 C        -2.131719         1.910723         1.967825
 C        -0.641308         1.482290         2.178851
 C        -0.654016         1.297766         0.617856
 O        -0.125667         0.059342         0.029804
 C        -0.178050         2.489699        -0.167743
 C        -1.195486         3.656945         0.200551
 C        -2.313623         2.985269         0.888473
 C        -2.220848         1.410409         0.619217
 H        -2.956432         1.740796         3.773562
 H         0.021679         2.139387         2.566328
 H        -0.421768         0.520463         2.617488
 H        -0.623914        -0.688311         0.446929
 H         0.884436         2.809559        -0.034428
 H        -0.471542         2.126864        -1.219252
 H        -0.717423         4.339961         0.890904
 H        -1.527356         4.204390        -0.660160
 H        -3.328479         3.349680         0.627613
 H        -2.939532         0.799856        -0.007513
