19
Iteration:  4584
 O        -3.092584         1.836951         3.109482
 C        -2.228459         1.885189         1.965039
 C        -0.789875         1.473736         2.120521
 C        -0.629368         1.333389         0.548926
 O        -0.353450         0.022671        -0.034463
 C        -0.146941         2.555941        -0.164462
 C        -1.035595         3.748001         0.282323
 C        -2.308446         2.934727         0.819889
 C        -2.223047         1.455032         0.514569
 H        -3.387449         0.952771         3.117605
 H        -0.179595         2.087932         2.806769
 H        -0.651720         0.535339         2.561405
 H         0.595115        -0.270460         0.048741
 H         0.873658         2.722687        -0.013241
 H        -0.301420         2.397520        -1.175008
 H        -0.593994         4.373813         0.979923
 H        -1.377835         4.196578        -0.652503
 H        -3.197962         3.608278         0.597031
 H        -2.886542         0.890944        -0.146436
