19
Iteration:  4576
 O        -3.041770         1.867228         3.086961
 C        -2.248858         1.861297         2.007009
 C        -0.803279         1.489631         2.129900
 C        -0.648349         1.289772         0.528323
 O        -0.396307         0.069047        -0.040992
 C        -0.071127         2.637132        -0.105778
 C        -1.056722         3.638508         0.297231
 C        -2.342735         2.922253         0.728597
 C        -2.238122         1.452454         0.508746
 H        -3.308454         1.024321         3.414140
 H        -0.023380         2.060242         2.690040
 H        -0.799994         0.393380         2.519467
 H         0.501596        -0.200706         0.249777
 H         1.019472         2.797953        -0.082801
 H        -0.226719         2.486031        -1.278060
 H        -0.580399         4.477799         1.005088
 H        -1.252939         4.261675        -0.587726
 H        -3.294715         3.279977         0.820813
 H        -2.702955         0.829617        -0.251393
