19
Iteration:  2287charge 0 multiplicity 1
 O        -2.969460         1.940909         3.064427
 C        -2.108829         2.042140         2.027354
 C        -0.672017         1.395614         2.214592
 C        -0.809836         1.254220         0.554761
 O        -0.262770         0.127154        -0.225926
 C        -0.155651         2.470570        -0.077889
 C        -1.122215         3.630055         0.130599
 C        -2.388308         2.943809         0.848312
 C        -2.350319         1.426161         0.655909
 H        -3.322823         0.979928         3.049326
 H         0.235692         1.851431         2.561006
 H        -0.939143         0.455799         2.768431
 H         0.612902        -0.099048         0.071123
 H         0.888043         2.547913         0.222431
 H        -0.088997         2.163665        -1.117170
 H        -0.887404         4.457105         0.744053
 H        -1.516926         4.093743        -0.766391
 H        -3.373256         3.503079         0.913187
 H        -3.184882         0.895726         0.253037
