19
Iteration:  1288charge 0 multiplicity 1
 O        -3.095386         1.815477         3.006520
 C        -2.183354         1.962496         1.913293
 C        -0.729966         1.504701         2.057056
 C        -0.670063         1.281182         0.524198
 O        -0.374888        -0.041734         0.176804
 C        -0.078393         2.477772        -0.223630
 C        -1.052507         3.759347         0.351082
 C        -2.356975         2.961604         0.818928
 C        -2.195802         1.563529         0.481870
 H        -2.901617         0.906890         3.130048
 H        -0.102841         2.266369         2.463785
 H        -0.557749         0.414933         2.557017
 H        -0.986905        -0.436089        -0.426640
 H         0.901326         2.893294         0.170940
 H        -0.117149         2.585157        -1.309795
 H        -0.634336         4.019724         1.323563
 H        -1.072596         4.639242        -0.329724
 H        -3.431002         3.126296         0.791726
 H        -2.948223         0.957827        -0.011481
