19
Iteration:  1750
 O        -2.943671         2.009310         3.048950
 C        -2.159908         1.926250         1.904554
 C        -0.803050         1.419664         2.026197
 C        -0.749802         1.223488         0.513706
 O        -0.218314         0.072775        -0.012992
 C        -0.128432         2.506455         0.067022
 C        -1.153534         3.669769         0.275180
 C        -2.352604         2.927563         0.675083
 C        -2.414381         1.420564         0.501641
 H        -2.845144         1.178346         3.462030
 H        -0.048809         1.948110         2.527464
 H        -1.006312         0.434536         2.573208
 H         0.643936        -0.240610         0.341208
 H         0.743073         2.634173         0.763689
 H         0.240703         2.630127        -0.949468
 H        -1.000163         4.230942         1.196886
 H        -1.273353         4.436434        -0.503522
 H        -3.253079         3.522101         0.801957
 H        -3.051217         0.672606         0.001547
