19
Iteration:  3158
 O        -3.153308         1.699707         2.841228
 C        -2.096048         2.106696         2.011297
 C        -0.595642         1.506732         2.042908
 C        -0.699219         1.262117         0.514905
 O        -0.251733        -0.017617         0.220409
 C        -0.234920         2.459723        -0.240079
 C        -1.138043         3.681334         0.295178
 C        -2.354364         3.012677         0.880523
 C        -2.296501         1.514282         0.581017
 H        -3.083789         2.261429         3.724394
 H         0.206643         2.110285         2.371051
 H        -0.490645         0.434406         2.463490
 H        -0.017047         0.002073        -0.703053
 H         0.841760         2.457533        -0.351062
 H        -0.464357         2.440392        -1.276048
 H        -0.572291         4.191103         1.108031
 H        -1.188919         4.378122        -0.565255
 H        -3.285267         3.504637         1.122071
 H        -3.072900         0.656102         0.455688
