19
Iteration:  4568
 O        -3.046889         1.914551         3.079678
 C        -2.178738         1.882097         1.939371
 C        -0.753489         1.424613         2.121897
 C        -0.747313         1.329601         0.559276
 O        -0.391580         0.085793        -0.039117
 C        -0.010711         2.583979        -0.121373
 C        -1.109525         3.649175         0.313204
 C        -2.371977         2.880973         0.746073
 C        -2.216386         1.452531         0.468447
 H        -3.098234         1.031952         3.504626
 H        -0.036831         2.145065         2.538772
 H        -0.820067         0.370712         2.578433
 H         0.443577        -0.217732         0.330932
 H         1.059331         2.925085         0.274788
 H        -0.076271         2.455999        -1.271340
 H        -0.823603         4.284135         1.262011
 H        -1.311099         4.380409        -0.494075
 H        -3.412681         3.269220         0.815490
 H        -2.837275         0.797997        -0.154490
