19
Iteration:  1434
 O        -3.117940         1.878877         2.994907
 C        -2.133900         1.954009         1.941716
 C        -0.720949         1.352077         2.155488
 C        -0.707714         1.230645         0.623584
 O        -0.335509         0.014036         0.004874
 C        -0.142959         2.496024        -0.141607
 C        -1.114503         3.758929         0.191613
 C        -2.311755         2.997854         0.882834
 C        -2.236218         1.606766         0.500605
 H        -3.357102         0.875000         3.048283
 H         0.161014         1.868917         2.564031
 H        -0.707024         0.315404         2.544812
 H         0.536908        -0.172131         0.459642
 H         0.912532         2.681343         0.084630
 H        -0.226034         2.303375        -1.235297
 H        -0.602545         4.481592         0.882566
 H        -1.316134         4.289613        -0.766031
 H        -3.373103         3.308199         0.807544
 H        -2.943863         0.893033         0.124917
