19
Iteration:  3409charge 0 multiplicity 1
 O        -3.001925         1.961689         3.092485
 C        -2.161073         1.974891         1.978234
 C        -0.739048         1.332955         2.114053
 C        -0.696815         1.298728         0.572067
 O        -0.278157         0.067390        -0.011736
 C        -0.110781         2.548284        -0.024406
 C        -1.197449         3.666568         0.242054
 C        -2.361879         2.801912         0.810131
 C        -2.241705         1.388474         0.468344
 H        -3.513943         2.754041         3.170280
 H         0.105676         1.776088         2.655542
 H        -0.920611         0.244962         2.464979
 H         0.187155         0.393938        -0.826865
 H         0.873071         2.992678         0.210195
 H        -0.218590         2.357759        -1.136414
 H        -0.855305         4.478226         0.890955
 H        -1.556763         3.971038        -0.740860
 H        -3.287957         3.417213         0.770061
 H        -2.802794         0.878635        -0.302432
