19
Iteration:  4715
 O        -3.076601         2.035540         3.023474
 C        -2.151145         1.914586         2.001286
 C        -0.815855         1.259710         2.092452
 C        -0.763513         1.244497         0.494191
 O        -0.087897         0.051048        -0.000097
 C        -0.101140         2.554686        -0.018037
 C        -1.148044         3.702659         0.222429
 C        -2.378392         2.956933         0.908103
 C        -2.304833         1.474778         0.503343
 H        -3.210663         1.051520         3.186720
 H        -0.001864         1.749388         2.685945
 H        -0.778391         0.200883         2.291595
 H        -0.466500        -0.110530        -0.916537
 H         0.861206         2.939978         0.408863
 H         0.051662         2.598549        -1.062077
 H        -0.675341         4.478112         0.716089
 H        -1.505180         4.018568        -0.782568
 H        -3.315775         3.451781         1.187804
 H        -2.946799         0.829086        -0.165560
