19
Iteration:  2332
 O        -2.922257         2.106242         3.106512
 C        -2.134825         1.813457         2.021206
 C        -0.731211         1.277592         2.009090
 C        -0.771956         1.243807         0.455109
 O        -0.372090        -0.003785         0.000442
 C        -0.085257         2.659269        -0.085121
 C        -1.259398         3.709221         0.271541
 C        -2.336649         2.798310         0.890824
 C        -2.256563         1.474510         0.388784
 H        -2.599991         1.497138         3.863450
 H        -0.214804         2.051781         2.557941
 H        -0.572851         0.286681         2.469656
 H         0.371865        -0.217731         0.590402
 H         0.870147         3.050261         0.222208
 H         0.061709         2.784876        -1.160194
 H        -0.981506         4.594281         0.849219
 H        -1.553252         4.106126        -0.703227
 H        -3.370789         3.242698         0.977394
 H        -2.974492         1.128469        -0.436358
