19
Iteration:  1824charge 0 multiplicity 1
 O        -3.180025         1.867608         2.957871
 C        -2.136107         2.031940         1.970178
 C        -0.690251         1.523533         2.075295
 C        -0.736017         1.277563         0.541895
 O        -0.221810         0.108387        -0.030003
 C        -0.188695         2.436307        -0.180998
 C        -1.047379         3.629488         0.371507
 C        -2.305815         2.973609         0.805537
 C        -2.242938         1.433463         0.616687
 H        -3.242002         0.859120         2.962959
 H         0.125084         2.176178         2.429903
 H        -0.566993         0.507909         2.532672
 H        -0.629359        -0.711885         0.311250
 H         0.901423         2.605751         0.050234
 H        -0.216155         2.143422        -1.228392
 H        -0.582946         4.294142         1.136689
 H        -1.385397         4.382484        -0.417183
 H        -3.246586         3.455843         1.052070
 H        -3.139494         0.889829         0.279827
