19
Iteration:  3239charge 0 multiplicity 1
 O        -2.888780         1.947566         3.046795
 C        -2.079649         1.995848         1.890999
 C        -0.815374         1.250059         2.125447
 C        -0.801757         1.176619         0.528432
 O        -0.153073         0.013403         0.099167
 C        -0.190039         2.619110        -0.084401
 C        -1.226450         3.746544         0.249281
 C        -2.364236         2.933594         0.837208
 C        -2.365039         1.401475         0.472264
 H        -3.563322         2.678597         2.767761
 H         0.120699         1.551577         2.638045
 H        -0.992862         0.232347         2.317769
 H         0.536604         0.374435        -0.462505
 H         0.811660         2.754195         0.353908
 H        -0.184558         2.659823        -1.198376
 H        -0.645179         4.539157         0.668162
 H        -1.480272         4.084029        -0.754120
 H        -3.286060         3.504328         1.040698
 H        -3.110747         0.639308         0.432072
