19
Iteration:  2037charge 0 multiplicity 1
 O        -3.252362         1.819691         2.916576
 C        -2.132868         1.885232         2.002696
 C        -0.679988         1.557003         2.158703
 C        -0.727998         1.266140         0.515837
 O        -0.152287         0.033124         0.057789
 C        -0.322624         2.521082        -0.362451
 C        -1.031750         3.700260         0.293949
 C        -2.196181         2.980608         0.895331
 C        -2.218816         1.437385         0.632834
 H        -2.667704         1.892611         3.762243
 H        -0.387671         2.247086         3.006888
 H        -0.387118         0.498215         2.504446
 H        -0.918858        -0.483097        -0.240582
 H         0.749280         2.574598        -0.409711
 H        -0.721391         2.126586        -1.330199
 H        -0.355913         4.095681         1.126204
 H        -1.402411         4.569278        -0.253828
 H        -3.154483         3.489737         0.898306
 H        -3.132146         1.049203         0.061301
