19
Iteration:  4059
 O        -3.176748         1.662493         2.932834
 C        -2.205782         1.902399         1.944656
 C        -0.717764         1.543235         2.076503
 C        -0.695278         1.254631         0.482736
 O        -0.166751        -0.008987         0.169730
 C        -0.162018         2.508066        -0.228319
 C        -0.996749         3.655116         0.346036
 C        -2.304933         3.048208         0.925138
 C        -2.369435         1.560177         0.518418
 H        -3.227035         2.361603         3.553237
 H        -0.025669         2.336526         2.279573
 H        -0.537040         0.725932         2.652055
 H        -0.033885        -0.024084        -0.786891
 H         0.889245         2.561002        -0.072963
 H        -0.311184         2.376300        -1.325187
 H        -0.562928         4.107736         1.227313
 H        -1.275821         4.370003        -0.460366
 H        -3.298393         3.591003         0.904507
 H        -3.277450         1.338529        -0.026402
