19
Iteration:   709charge 0 multiplicity 1
 O        -3.020682         1.857556         2.986421
 C        -2.182313         1.968741         1.908927
 C        -0.758830         1.410934         2.115513
 C        -0.826713         1.233571         0.479707
 O        -0.233368         0.056212         0.089416
 C        -0.126097         2.415717        -0.022403
 C        -1.000877         3.698327         0.402763
 C        -2.304750         3.012026         0.790381
 C        -2.359942         1.532632         0.412282
 H        -3.867656         1.454485         2.909360
 H         0.022731         2.016037         2.675620
 H        -0.782870         0.367551         2.435551
 H         0.281238         0.272190        -0.704941
 H         0.841389         2.486871         0.491736
 H         0.143918         2.469163        -1.165325
 H        -0.606845         4.255605         1.263204
 H        -1.236589         4.225012        -0.527019
 H        -3.354214         3.439975         0.748315
 H        -3.239385         1.008257        -0.019555
