19
Iteration:    52charge 0 multiplicity 1
 O        -3.151452         1.936234         3.043528
 C        -2.154409         1.975757         1.941217
 C        -0.791044         1.532926         2.110570
 C        -0.717275         1.282676         0.508765
 O        -0.102229         0.070593         0.178143
 C        -0.166739         2.510212        -0.274090
 C        -1.110053         3.692339         0.304504
 C        -2.318031         2.864228         0.782417
 C        -2.275765         1.396486         0.422534
 H        -3.375620         0.964050         3.068451
 H         0.076656         2.132972         2.685818
 H        -0.735378         0.497352         2.502732
 H        -0.232423        -0.548043         0.911685
 H         0.907962         2.739225        -0.010464
 H        -0.464168         2.326086        -1.381973
 H        -0.642875         4.131788         1.193712
 H        -1.408007         4.434475        -0.457587
 H        -3.272744         3.326772         0.727445
 H        -2.969796         0.719746         0.022860
