19
Iteration:   528charge 0 multiplicity 1
 O        -3.196389         1.833341         2.930206
 C        -2.141529         1.945180         1.985003
 C        -0.685377         1.465220         2.219142
 C        -0.687996         1.233474         0.542104
 O        -0.344480         0.111710        -0.007901
 C        -0.027592         2.481237        -0.042836
 C        -1.048680         3.631882         0.307024
 C        -2.334552         2.948760         0.837389
 C        -2.198708         1.461457         0.499972
 H        -4.071607         2.175126         2.553814
 H        -0.029512         2.188462         2.716510
 H        -0.753437         0.555435         2.879148
 H        -0.535403         0.220788        -0.949304
 H         1.100203         2.477332         0.163504
 H        -0.045990         2.304628        -1.154821
 H        -0.706787         4.387060         1.087730
 H        -1.200634         4.179449        -0.650191
 H        -3.323748         3.455997         0.833869
 H        -2.863128         0.802355        -0.041906
