19
Iteration:  1524charge 0 multiplicity 1
 O        -3.114884         1.944910         2.989178
 C        -2.156578         1.975983         1.935247
 C        -0.685335         1.370348         2.053515
 C        -0.758199         1.239363         0.542816
 O        -0.307156         0.012032         0.076672
 C        -0.126795         2.575638        -0.093666
 C        -1.087178         3.629032         0.325319
 C        -2.368785         2.990534         0.723537
 C        -2.288673         1.424704         0.516166
 H        -2.709414         1.402224         3.776036
 H         0.140353         1.921093         2.632938
 H        -0.751664         0.379770         2.336769
 H         0.513482         0.068825        -0.407074
 H         0.784807         3.011565         0.274251
 H         0.063647         2.514365        -1.203726
 H        -0.760778         4.202249         1.257399
 H        -1.228833         4.435827        -0.415830
 H        -3.293636         3.473906         1.018283
 H        -2.938032         0.690597         0.000190
