19
Iteration:   732charge 0 multiplicity 1
 O        -3.212572         1.930287         3.000560
 C        -2.241746         1.919135         1.970671
 C        -0.749133         1.418626         2.095006
 C        -0.624358         1.220279         0.509789
 O        -0.300237         0.016712        -0.021280
 C        -0.108117         2.527437        -0.157596
 C        -0.957338         3.658808         0.409689
 C        -2.290366         2.945621         0.855023
 C        -2.234090         1.449078         0.559041
 H        -4.181360         2.025756         2.729695
 H        -0.029926         2.181461         2.578097
 H        -0.764036         0.532338         2.696048
 H         0.382633         0.135185        -0.685362
 H         0.967521         2.801060        -0.071351
 H        -0.275675         2.544489        -1.314590
 H        -0.616578         4.043073         1.382380
 H        -1.270031         4.384092        -0.320451
 H        -3.247990         3.547471         0.943230
 H        -2.878202         0.857141        -0.138531
