19
Iteration:  3854
 O        -3.110724         1.777919         2.959935
 C        -2.146696         2.035437         1.944058
 C        -0.724407         1.364741         2.078210
 C        -0.745385         1.316643         0.517118
 O        -0.163823         0.038276         0.127354
 C        -0.138401         2.540165        -0.176287
 C        -1.099295         3.701113         0.279883
 C        -2.336438         2.925664         0.856505
 C        -2.308056         1.504253         0.522089
 H        -3.282724         2.400594         3.632095
 H         0.269137         1.792949         2.557715
 H        -0.888554         0.260026         2.370514
 H        -0.760646        -0.516264        -0.406218
 H         0.897689         2.707903         0.291085
 H         0.005641         2.390925        -1.270421
 H        -0.696374         4.307450         1.115450
 H        -1.285549         4.424782        -0.505640
 H        -3.272406         3.500708         0.772118
 H        -3.184151         0.891816         0.150110
