19
Iteration:  2141charge 0 multiplicity 1
 O        -3.010088         2.049939         2.980116
 C        -2.080411         1.960506         2.033068
 C        -0.703826         1.288730         2.158990
 C        -0.758529         1.244397         0.460036
 O        -0.280448         0.021827        -0.174254
 C        -0.093507         2.573384        -0.071600
 C        -1.273230         3.778338         0.234642
 C        -2.338812         2.921387         0.861755
 C        -2.290004         1.407740         0.671577
 H        -3.492643         1.246533         2.942622
 H         0.180729         1.620012         2.784779
 H        -1.064282         0.282635         2.426051
 H         0.475869        -0.283092         0.424298
 H         0.922090         2.485377         0.420287
 H         0.131193         2.476640        -1.133362
 H        -0.732023         4.551029         0.750626
 H        -1.500683         4.057730        -0.823693
 H        -3.259088         3.487587         1.049879
 H        -3.132939         0.724172         0.437241
