19
Iteration:  1255charge 0 multiplicity 1
 O        -3.118932         1.872219         3.006318
 C        -2.200706         1.909049         1.923003
 C        -0.742369         1.424397         2.042279
 C        -0.762471         1.252442         0.522522
 O        -0.263306         0.029937         0.075022
 C        -0.072622         2.526328        -0.054260
 C        -1.056564         3.707343         0.254941
 C        -2.271691         2.953749         0.873724
 C        -2.297894         1.547104         0.457693
 H        -2.721898         1.131729         3.581252
 H        -0.065982         2.239425         2.240727
 H        -0.420347         0.428320         2.612418
 H        -1.054346        -0.528117        -0.037265
 H         0.993934         2.706822         0.359312
 H         0.174235         2.435442        -1.128144
 H        -0.792085         4.530430         0.923015
 H        -1.342791         4.232622        -0.687226
 H        -3.270637         3.353921         1.007765
 H        -3.113020         1.071366        -0.050662
