19
Iteration:  2089
 O        -2.935091         1.762605         3.114724
 C        -2.197897         1.962312         1.994366
 C        -0.803642         1.494585         2.062670
 C        -0.780345         1.238914         0.498099
 O        -0.278862        -0.027250         0.082996
 C        -0.085954         2.634845        -0.182239
 C        -1.066291         3.656104         0.245838
 C        -2.326802         2.915287         0.855139
 C        -2.352070         1.456432         0.476684
 H        -3.575433         2.493878         3.131310
 H        -0.164718         2.274606         2.411009
 H        -0.793022         0.701452         2.845335
 H         0.278792         0.150055        -0.716571
 H         0.915059         2.691925         0.278906
 H         0.016913         2.395992        -1.225447
 H        -0.512811         4.319708         0.900197
 H        -1.542108         4.200271        -0.613695
 H        -3.204407         3.564878         0.880211
 H        -3.215756         1.003286        -0.091105
