19
Iteration:  4783charge 0 multiplicity 1
 O        -3.120035         1.818485         2.959653
 C        -2.169601         1.967728         1.918805
 C        -0.699982         1.478924         1.962333
 C        -0.819457         1.253507         0.482601
 O        -0.232035        -0.055679         0.171379
 C        -0.104998         2.598792        -0.150145
 C        -1.032708         3.714636         0.384369
 C        -2.391182         3.015268         0.943292
 C        -2.284618         1.467096         0.492297
 H        -3.167824         0.848366         3.250056
 H        -0.055134         2.329086         2.160725
 H        -0.409896         0.455085         2.500464
 H         0.161312        -0.059673        -0.717207
 H         0.987428         2.554986         0.071657
 H        -0.307660         2.475026        -1.248886
 H        -0.603118         4.258095         1.290298
 H        -1.222654         4.400742        -0.478865
 H        -3.277023         3.635832         1.043915
 H        -3.026724         0.824651        -0.002431
