19
Iteration:  1507
 O        -3.047804         1.945233         2.910339
 C        -2.157760         1.934195         1.910774
 C        -0.762700         1.528987         2.122054
 C        -0.716503         1.310356         0.483400
 O        -0.333830        -0.002324         0.080807
 C        -0.129467         2.526607        -0.205258
 C        -1.046938         3.672309         0.489605
 C        -2.388642         2.862183         0.811275
 C        -2.268143         1.422950         0.493136
 H        -2.993070         1.253309         3.635574
 H        -0.108972         2.222035         2.631482
 H        -0.755771         0.525192         2.734127
 H         0.400969         0.115319        -0.509121
 H         0.995117         2.533409         0.038499
 H        -0.358957         2.389046        -1.260454
 H        -0.474026         3.964290         1.349718
 H        -1.187192         4.552508        -0.172431
 H        -3.317492         3.390622         0.646214
 H        -3.038600         0.757994         0.145380
