19
Iteration:  1877charge 0 multiplicity 1
 O        -3.054253         1.847323         2.983893
 C        -2.181548         1.843314         1.964990
 C        -0.722328         1.461283         2.105409
 C        -0.789194         1.356057         0.472752
 O        -0.290294         0.035546         0.252635
 C        -0.171061         2.546770        -0.276459
 C        -1.013675         3.682240         0.338177
 C        -2.324716         2.960848         0.891063
 C        -2.264505         1.508327         0.436958
 H        -3.045207         0.981093         3.487243
 H         0.125154         2.159346         2.427654
 H        -0.608260         0.411850         2.355433
 H        -0.474028        -0.450633        -0.586781
 H         0.863697         2.893126        -0.079370
 H        -0.296040         2.339114        -1.360236
 H        -0.480157         4.176466         1.184099
 H        -1.257493         4.434262        -0.443441
 H        -3.341185         3.326747         0.781603
 H        -2.950453         1.178860        -0.371526
