19
Iteration:  2162
 O        -3.149762         2.018878         2.975844
 C        -2.113203         1.990586         2.052298
 C        -0.620639         1.284680         2.072261
 C        -0.710234         1.210518         0.560241
 O        -0.269260         0.103776        -0.148488
 C        -0.191153         2.531701        -0.100731
 C        -1.216400         3.614888         0.246898
 C        -2.268623         2.970272         0.935105
 C        -2.290904         1.486696         0.541627
 H        -2.945398         1.277273         3.643968
 H         0.333116         1.896407         2.352278
 H        -0.631070         0.345634         2.648643
 H        -0.089790        -0.549295         0.510795
 H         0.830848         2.866185         0.258524
 H        -0.107884         2.412979        -1.190920
 H        -0.671184         4.298845         0.927854
 H        -1.434968         4.020999        -0.751558
 H        -3.250429         3.467449         1.039716
 H        -2.980799         0.818904        -0.015953
