19
Iteration:   716
 O        -3.053352         1.887826         2.987656
 C        -2.156049         1.944899         1.958047
 C        -0.780118         1.432682         2.088332
 C        -0.831957         1.290069         0.554593
 O        -0.238383         0.027579         0.038613
 C        -0.091868         2.463685        -0.043783
 C        -1.045927         3.643097         0.414145
 C        -2.307460         2.995067         0.813553
 C        -2.341017         1.501225         0.409599
 H        -3.893018         1.583087         2.577181
 H        -0.010210         2.043395         2.475462
 H        -0.692086         0.388598         2.509815
 H         0.322129         0.306920        -0.678888
 H         0.935501         2.486395         0.329883
 H        -0.018387         2.262471        -1.091024
 H        -0.475673         4.125499         1.195918
 H        -1.053610         4.399859        -0.436230
 H        -3.272714         3.472742         0.792525
 H        -3.103096         0.914793        -0.059667
