19
Iteration:  2188
 O        -3.064806         1.865338         3.103320
 C        -2.215724         1.866709         2.018824
 C        -0.846849         1.527117         2.059447
 C        -0.728297         1.293006         0.490422
 O        -0.212580         0.088685        -0.031012
 C        -0.151726         2.491676        -0.243785
 C        -0.993740         3.670322         0.263591
 C        -2.283111         2.957642         0.895915
 C        -2.325695         1.471511         0.547796
 H        -2.607905         1.398330         3.874204
 H        -0.296373         2.252105         2.589454
 H        -0.560561         0.496814         2.387312
 H        -0.898258        -0.560041         0.108491
 H         0.908653         2.653372        -0.035888
 H        -0.201828         2.401609        -1.324085
 H        -0.430893         4.189068         1.032247
 H        -1.094141         4.302839        -0.656551
 H        -3.310821         3.295803         0.767082
 H        -3.107102         0.854358         0.075598
