19
Iteration:  4650
 O        -3.145955         1.882224         3.017330
 C        -2.207034         1.945432         1.999514
 C        -0.755430         1.482583         2.146712
 C        -0.664480         1.330549         0.529256
 O        -0.249474        -0.018009         0.056530
 C        -0.243420         2.560763        -0.272121
 C        -1.024234         3.620428         0.406232
 C        -2.280771         2.937785         0.825746
 C        -2.250638         1.488152         0.482703
 H        -3.221500         0.968718         3.464738
 H        -0.138089         2.215101         2.736067
 H        -0.462719         0.513942         2.564878
 H         0.325057         0.044951        -0.704880
 H         0.807126         2.637210        -0.246076
 H        -0.557641         2.361957        -1.248437
 H        -0.518059         4.040305         1.212408
 H        -1.287240         4.363950        -0.366527
 H        -3.306603         3.294543         0.784327
 H        -2.785422         1.223972        -0.426019
