19
Iteration:  3841charge 0 multiplicity 1
 O        -3.131240         1.842472         2.920173
 C        -2.091244         1.975840         2.021594
 C        -0.777678         1.383693         2.032987
 C        -0.750573         1.211480         0.508662
 O        -0.160358         0.040746         0.036608
 C        -0.089300         2.531328        -0.051772
 C        -1.148590         3.675121         0.279427
 C        -2.319195         2.978022         0.855243
 C        -2.308351         1.466129         0.580238
 H        -3.110591         2.766533         3.403257
 H         0.039481         2.029432         2.612423
 H        -0.784569         0.449746         2.555025
 H        -0.513780        -0.076335        -0.884314
 H         0.907915         2.709864         0.326129
 H        -0.017574         2.445659        -1.146478
 H        -0.733971         4.453666         0.872653
 H        -1.561322         4.083045        -0.643884
 H        -3.247944         3.459382         1.001678
 H        -3.068741         0.758883         0.241469
