19
Iteration:    18charge 0 multiplicity 1
 O        -2.993635         1.758777         3.071256
 C        -2.252511         2.014042         1.881078
 C        -0.864221         1.666256         2.097849
 C        -0.753073         1.243816         0.557280
 O         0.006364         0.064711         0.113579
 C        -0.164348         2.427453        -0.174621
 C        -1.091341         3.600184         0.306681
 C        -2.388553         2.955490         0.765093
 C        -2.354444         1.418018         0.413780
 H        -3.683852         2.407432         2.950858
 H        -0.198198         2.516464         2.590496
 H        -0.876537         0.749056         2.717543
 H        -0.031420        -0.563125         0.841672
 H         0.933634         2.592694         0.045929
 H        -0.113874         2.260810        -1.306683
 H        -0.623547         4.163602         1.143416
 H        -1.278776         4.418589        -0.425334
 H        -3.338779         3.466987         0.627740
 H        -3.139892         0.780431         0.051350
