19
Iteration:  4507charge 0 multiplicity 1
 O        -3.137926         1.991763         3.086124
 C        -2.198078         1.855084         1.990978
 C        -0.799377         1.343678         2.094782
 C        -0.707090         1.335460         0.560844
 O        -0.227016         0.139920        -0.049580
 C        -0.224717         2.513402        -0.175724
 C        -1.039587         3.606147         0.278073
 C        -2.290263         2.928316         0.866906
 C        -2.202743         1.447690         0.506687
 H        -3.429453         1.006941         3.212747
 H        -0.076991         1.724861         2.856760
 H        -0.938232         0.335771         2.354797
 H         0.712307         0.368535        -0.067681
 H         0.798794         2.652603         0.007880
 H        -0.222966         2.326498        -1.244257
 H        -0.580641         4.258709         1.018620
 H        -1.234256         4.307915        -0.563656
 H        -3.321532         3.497910         0.895022
 H        -2.908880         0.942094        -0.161119
