19
Iteration:  2946charge 0 multiplicity 1
 O        -3.127908         1.777793         3.041447
 C        -2.190124         1.886875         1.978899
 C        -0.701733         1.559133         2.120511
 C        -0.691605         1.303421         0.561801
 O        -0.218970        -0.003236         0.112467
 C        -0.197912         2.544732        -0.354044
 C        -1.045578         3.718865         0.294179
 C        -2.325686         2.995222         0.911876
 C        -2.235589         1.465790         0.546633
 H        -3.234034         0.829666         3.355216
 H        -0.037638         2.252222         2.655534
 H        -0.697417         0.542359         2.469299
 H        -0.863812        -0.151484        -0.568593
 H         0.887910         2.738225        -0.372542
 H        -0.449662         2.398928        -1.391673
 H        -0.419288         4.393789         0.957254
 H        -1.198762         4.298903        -0.627982
 H        -3.292614         3.527500         0.758485
 H        -3.060632         0.966676        -0.041901
