19
Iteration:  2882charge 0 multiplicity 1
 O        -3.042977         1.967988         3.108223
 C        -2.171466         1.846413         1.999401
 C        -0.745960         1.336673         2.104864
 C        -0.713337         1.253008         0.490248
 O        -0.229040         0.014990         0.035978
 C        -0.141238         2.648215        -0.158024
 C        -1.155077         3.670502         0.322216
 C        -2.339474         2.836211         0.882592
 C        -2.239002         1.437927         0.402687
 H        -3.369539         2.944184         3.145886
 H         0.097672         1.861994         2.586684
 H        -0.649341         0.337518         2.455420
 H        -0.326837         0.086355        -0.946916
 H         0.894712         2.833808         0.245326
 H        -0.059419         2.608353        -1.267067
 H        -0.659236         4.407476         0.991936
 H        -1.667316         4.381812        -0.314315
 H        -3.336830         3.337878         0.836488
 H        -3.080029         0.992773        -0.197053
