19
Iteration:  4327charge 0 multiplicity 1
 O        -3.130344         1.859347         3.047065
 C        -2.168250         1.974791         1.951447
 C        -0.805952         1.409546         2.106477
 C        -0.694121         1.299905         0.596785
 O        -0.290005         0.032665        -0.026403
 C        -0.154299         2.592477        -0.118349
 C        -1.021403         3.682190         0.327864
 C        -2.335763         2.897412         0.689091
 C        -2.275382         1.447280         0.554267
 H        -2.679574         1.266111         3.670786
 H        -0.008739         1.884654         2.645567
 H        -0.834207         0.306145         2.483130
 H         0.653889         0.187261        -0.325556
 H         1.000664         2.673527         0.073823
 H        -0.278958         2.514022        -1.209766
 H        -0.731877         4.412344         1.153688
 H        -1.381451         4.432779        -0.449061
 H        -3.264581         3.515608         0.729390
 H        -2.877174         0.770872        -0.032458
