19
Iteration:  3488
 O        -3.174561         1.755201         2.998397
 C        -2.175845         1.937981         2.002336
 C        -0.687381         1.447804         2.139882
 C        -0.712290         1.351827         0.584724
 O        -0.179955         0.018973         0.113231
 C        -0.191544         2.525515        -0.246059
 C        -1.087877         3.635300         0.176726
 C        -2.311927         2.972100         0.866224
 C        -2.275825         1.493618         0.534220
 H        -2.933318         2.315191         3.767658
 H         0.083934         2.098444         2.622704
 H        -0.580140         0.474576         2.663480
 H        -0.447175         0.294799        -0.803541
 H         0.885437         2.666760        -0.328642
 H        -0.466526         2.363061        -1.361024
 H        -0.510000         4.214471         0.917213
 H        -1.399562         4.343686        -0.617115
 H        -3.215592         3.490499         1.054449
 H        -3.012799         0.850842        -0.029376
