19
Iteration:  4927
 O        -3.101656         1.842790         2.982516
 C        -2.175553         1.988970         1.940929
 C        -0.741945         1.316884         1.978387
 C        -0.805099         1.242317         0.465454
 O        -0.179063         0.088681         0.139047
 C        -0.045243         2.607567        -0.084111
 C        -1.117377         3.638808         0.299125
 C        -2.337385         3.000157         0.873280
 C        -2.349697         1.476426         0.555468
 H        -2.989788         1.107203         3.676737
 H         0.098576         1.898506         2.236576
 H        -0.749677         0.343611         2.537837
 H         0.011385         0.220562        -0.834433
 H         0.906573         2.580680         0.408027
 H         0.109980         2.476913        -1.210171
 H        -0.598530         4.417276         0.928351
 H        -1.503147         4.047820        -0.637253
 H        -3.314659         3.510382         0.980422
 H        -3.193394         1.120936        -0.006218
