19
Iteration:  3182charge 0 multiplicity 1
 O        -3.120367         1.835656         3.009209
 C        -2.224024         1.897569         2.020129
 C        -0.743115         1.600960         2.178386
 C        -0.710787         1.260420         0.605218
 O        -0.303867         0.025914        -0.020170
 C        -0.190082         2.526201        -0.248319
 C        -1.056965         3.635142         0.274692
 C        -2.290475         2.929662         0.778562
 C        -2.201238         1.357315         0.651034
 H        -2.933919         2.584644         3.580180
 H        -0.087927         2.407048         2.478986
 H        -0.449578         0.623436         2.645539
 H         0.048918         0.375700        -0.875759
 H         0.887625         2.647498        -0.189911
 H        -0.307694         2.341838        -1.330601
 H        -0.466596         4.109282         1.073813
 H        -1.292509         4.446155        -0.460105
 H        -3.363285         3.193605         0.576582
 H        -2.833967         0.865206        -0.069901
