19
Iteration:  3225charge 0 multiplicity 1
 O        -2.930545         1.986381         3.025849
 C        -2.130354         1.936791         1.955495
 C        -0.760888         1.291161         1.957691
 C        -0.784203         1.241173         0.477761
 O        -0.126970         0.040053         0.093521
 C        -0.224647         2.507925        -0.055742
 C        -1.186389         3.739914         0.231751
 C        -2.344497         2.939996         0.847580
 C        -2.369940         1.366587         0.587545
 H        -3.414889         2.753529         3.139189
 H        -0.002704         1.822099         2.472972
 H        -0.987795         0.327971         2.506723
 H         0.716072         0.138759        -0.431380
 H         0.708004         2.707273         0.463592
 H        -0.002557         2.317769        -1.089406
 H        -0.927903         4.385599         1.089190
 H        -1.558637         4.372121        -0.608902
 H        -3.406108         3.339876         0.890897
 H        -3.164931         1.001749        -0.003000
