19
Iteration:  1034
 O        -2.907539         1.970203         3.102017
 C        -2.250384         2.015726         1.953261
 C        -0.899892         1.318739         2.011951
 C        -0.793693         1.259366         0.491460
 O        -0.115883         0.128956        -0.043831
 C        -0.174927         2.483532        -0.047775
 C        -1.051578         3.625912         0.374963
 C        -2.319734         2.920227         0.834210
 C        -2.336438         1.422993         0.399055
 H        -3.919699         2.153966         3.019246
 H        -0.189281         2.007627         2.444709
 H        -0.745524         0.388938         2.674653
 H        -0.081910        -0.424236         0.757058
 H         0.855318         2.693034         0.313866
 H        -0.125731         2.309163        -1.149706
 H        -0.451229         4.084688         1.143987
 H        -1.264543         4.290663        -0.461985
 H        -3.239245         3.425812         0.553741
 H        -3.114204         0.809222        -0.073750
