19
Iteration:  3844
 O        -3.112676         1.832228         2.915715
 C        -2.109811         1.997144         2.034075
 C        -0.768719         1.389937         2.040095
 C        -0.752067         1.226381         0.494902
 O        -0.158931         0.045432         0.062646
 C        -0.090948         2.522257        -0.085099
 C        -1.146026         3.684795         0.301894
 C        -2.302223         2.970835         0.831311
 C        -2.320653         1.473356         0.562351
 H        -3.201421         2.630593         3.472348
 H         0.059191         1.994463         2.571823
 H        -0.865803         0.309986         2.498707
 H        -0.588569        -0.222194        -0.791323
 H         0.951495         2.806895         0.324078
 H         0.019791         2.332993        -1.185801
 H        -0.729864         4.481256         0.965101
 H        -1.616261         4.128801        -0.569013
 H        -3.272658         3.475523         1.020508
 H        -3.098602         0.716290         0.247251
