19
Iteration:  4046charge 0 multiplicity 1
 O        -3.206440         1.741577         3.028700
 C        -2.239180         1.899385         1.987853
 C        -0.778180         1.442843         2.101726
 C        -0.721186         1.305787         0.480991
 O        -0.213646         0.004016         0.121714
 C        -0.057793         2.550294        -0.298472
 C        -1.055639         3.669196         0.341787
 C        -2.263571         2.966420         0.940513
 C        -2.279640         1.490555         0.488394
 H        -3.280397         2.681627         3.460708
 H        -0.180571         2.185807         2.701334
 H        -0.598274         0.469084         2.549663
 H         0.221804         0.045396        -0.768757
 H         0.913141         2.879843        -0.086261
 H        -0.279019         2.515524        -1.429117
 H        -0.417271         4.388076         0.837587
 H        -1.402164         4.382285        -0.433360
 H        -3.185346         3.573496         0.872307
 H        -2.912823         0.917557        -0.252151
