19
Iteration:  4656
 O        -3.126867         1.901994         3.065957
 C        -2.238221         1.915828         1.938149
 C        -0.778864         1.503619         2.148333
 C        -0.653767         1.308453         0.542500
 O        -0.267619         0.013065         0.051131
 C        -0.192268         2.527898        -0.242343
 C        -1.067949         3.625598         0.415976
 C        -2.273574         2.930059         0.809475
 C        -2.224494         1.489383         0.447296
 H        -3.068059         1.057416         3.496963
 H        -0.119414         2.108053         2.782015
 H        -0.465557         0.500684         2.494193
 H         0.245554         0.090479        -0.759208
 H         0.971187         2.758286        -0.232829
 H        -0.607370         2.361255        -1.323462
 H        -0.483247         4.019631         1.338774
 H        -1.355115         4.339721        -0.371054
 H        -3.352721         3.297173         0.709714
 H        -2.888017         1.097697        -0.351860
