19
Iteration:  1334charge 0 multiplicity 1
 O        -3.214637         1.990303         2.997525
 C        -2.202599         1.907356         1.969217
 C        -0.676381         1.333236         2.110914
 C        -0.766919         1.269700         0.516587
 O        -0.133061         0.074043         0.106150
 C        -0.245502         2.487143        -0.315097
 C        -0.986391         3.599564         0.277195
 C        -2.277356         3.018192         1.003253
 C        -2.311580         1.490701         0.511224
 H        -3.638122         1.119707         3.194538
 H         0.139288         2.002606         2.331839
 H        -0.829421         0.294346         2.659715
 H         0.416714         0.373615        -0.636907
 H         0.879150         2.550836        -0.249757
 H        -0.462366         2.093226        -1.326713
 H        -0.367890         3.903376         1.156021
 H        -1.320475         4.519387        -0.253383
 H        -3.073690         3.764807         0.947017
 H        -3.160686         0.961788         0.008050
