19
Iteration:  2509
 O        -3.088437         2.189196         2.998579
 C        -1.991459         1.926154         2.109671
 C        -0.694179         1.173973         2.034887
 C        -0.715752         1.226765         0.472269
 O        -0.181131         0.070456        -0.083902
 C        -0.175248         2.567758        -0.123497
 C        -1.299506         3.668894         0.245384
 C        -2.334547         2.923989         0.956616
 C        -2.242158         1.453536         0.581407
 H        -3.438251         1.327097         3.449927
 H         0.209598         1.531884         2.701677
 H        -0.850483         0.138824         2.370247
 H        -0.732583        -0.629159        -0.498526
 H         0.789972         2.763226         0.353150
 H         0.022971         2.398861        -1.221610
 H        -1.034498         4.561254         0.844219
 H        -1.554847         4.126201        -0.700495
 H        -3.335966         3.391887         1.099403
 H        -2.898988         0.837495         0.008208
