19
Iteration:  4317
 O        -3.124053         1.800950         2.985561
 C        -2.176605         1.955576         1.937561
 C        -0.738783         1.430862         2.091940
 C        -0.772117         1.218275         0.496695
 O        -0.282358         0.089019         0.061494
 C        -0.114649         2.492363        -0.152927
 C        -1.091694         3.750166         0.358898
 C        -2.343651         2.982638         0.812641
 C        -2.238914         1.474285         0.511438
 H        -2.700380         1.399394         3.715972
 H         0.051112         2.040404         2.456627
 H        -0.900373         0.403433         2.584288
 H         0.689731         0.174696        -0.097217
 H         1.030580         2.550987         0.087673
 H        -0.174348         2.366923        -1.287420
 H        -0.632097         4.387358         1.179961
 H        -1.213221         4.335477        -0.638512
 H        -3.395769         3.381064         0.769433
 H        -3.125375         0.949287         0.161515
