19
Iteration:  3917charge 0 multiplicity 1
 O        -3.267866         1.655393         2.826877
 C        -2.157223         2.002425         2.066775
 C        -0.622716         1.529118         2.045426
 C        -0.716811         1.316995         0.541288
 O        -0.261879        -0.002271         0.056756
 C        -0.161442         2.490152        -0.284127
 C        -1.028156         3.668556         0.356807
 C        -2.279445         3.018275         0.870263
 C        -2.305115         1.533499         0.609192
 H        -3.169331         2.104597         3.633424
 H         0.034427         2.378132         2.316609
 H        -0.460030         0.583542         2.429010
 H         0.406542        -0.242837         0.700290
 H         0.884704         2.410092        -0.099029
 H        -0.338709         2.426818        -1.350365
 H        -0.559740         4.156047         1.205382
 H        -1.256134         4.457908        -0.384436
 H        -3.222199         3.599978         0.898023
 H        -3.180738         0.837443         0.397453
