19
Iteration:  1333
 O        -3.213121         1.981508         2.989461
 C        -2.190107         1.908915         1.971527
 C        -0.677136         1.349239         2.110211
 C        -0.772285         1.258648         0.503902
 O        -0.137246         0.079657         0.110179
 C        -0.240764         2.481154        -0.310863
 C        -0.990925         3.604134         0.283716
 C        -2.274109         3.022373         1.011056
 C        -2.314291         1.486462         0.510995
 H        -3.634825         1.153471         3.177713
 H         0.092861         2.038103         2.345677
 H        -0.828363         0.278019         2.663470
 H         0.377580         0.363230        -0.639570
 H         0.900820         2.561836        -0.275214
 H        -0.445706         2.053840        -1.301595
 H        -0.345823         3.882129         1.137285
 H        -1.306480         4.536219        -0.254603
 H        -3.091907         3.745571         0.940275
 H        -3.178032         0.961834         0.014636
