19
Iteration:  1789charge 0 multiplicity 1
 O        -3.165310         2.059894         3.037403
 C        -2.220828         1.915497         2.010476
 C        -0.807924         1.248349         2.113842
 C        -0.705827         1.206034         0.578217
 O        -0.150758         0.111208        -0.079284
 C        -0.166532         2.518915        -0.196410
 C        -1.212029         3.741256         0.210437
 C        -2.178950         2.905160         0.911719
 C        -2.200584         1.461005         0.524557
 H        -3.442452         1.154115         3.461929
 H         0.001202         1.824217         2.750641
 H        -0.731238         0.216041         2.394768
 H         0.186079        -0.373364         0.701000
 H         0.754197         2.944994         0.199386
 H        -0.087241         2.261167        -1.292309
 H        -0.666460         4.542881         0.750992
 H        -1.575094         4.052780        -0.783906
 H        -3.103977         3.433536         1.158745
 H        -2.945449         1.139670        -0.148222
