19
Iteration:  2233
 O        -3.027015         1.860104         2.972880
 C        -2.093177         1.901783         1.904237
 C        -0.656114         1.498889         1.964666
 C        -0.755371         1.282861         0.472938
 O        -0.342421        -0.049280         0.262075
 C        -0.288683         2.596522        -0.286813
 C        -1.045311         3.682059         0.384569
 C        -2.306100         3.010394         0.907337
 C        -2.291364         1.460520         0.530049
 H        -3.064468         0.869979         3.222831
 H         0.067741         2.211554         2.257862
 H        -0.476751         0.594422         2.562918
 H         0.056050        -0.189718        -0.589356
 H         0.777041         2.757710        -0.292928
 H        -0.591174         2.451658        -1.334633
 H        -0.516864         4.092078         1.257055
 H        -1.412036         4.499933        -0.229831
 H        -3.231432         3.610631         1.051136
 H        -3.045292         0.811535         0.180768
