19
Iteration:  3209
 O        -3.066102         1.963564         3.180761
 C        -2.207267         1.932743         2.003865
 C        -0.734910         1.433459         2.076844
 C        -0.756793         1.215919         0.491935
 O        -0.145867         0.017791         0.000113
 C        -0.139928         2.540903        -0.137542
 C        -1.145349         3.563061         0.298362
 C        -2.400622         2.905859         0.796913
 C        -2.319161         1.457226         0.465553
 H        -3.212851         2.909395         3.325133
 H         0.134305         2.101253         2.423022
 H        -0.596267         0.429003         2.442120
 H         0.539337         0.341788        -0.626536
 H         0.927032         2.688525         0.195381
 H        -0.005865         2.460019        -1.278642
 H        -0.648822         4.286492         0.971934
 H        -1.415588         4.180021        -0.571984
 H        -3.379665         3.342986         0.745738
 H        -3.085896         0.837467        -0.099293
