19
Iteration:  1073charge 0 multiplicity 1
 O        -3.048282         1.900468         3.037200
 C        -2.189548         1.908624         1.945870
 C        -0.778322         1.439216         2.077701
 C        -0.737147         1.250175         0.546222
 O        -0.190927         0.058940        -0.001836
 C        -0.149690         2.558096        -0.113030
 C        -1.047534         3.650259         0.350242
 C        -2.309395         2.915717         0.827951
 C        -2.248491         1.429252         0.497847
 H        -3.723369         2.517000         2.837067
 H         0.017566         2.223623         2.310909
 H        -0.655499         0.466805         2.474094
 H        -0.978868        -0.561084        -0.123577
 H         0.897495         2.617498         0.156220
 H        -0.352722         2.340342        -1.163418
 H        -0.718810         4.281281         1.211510
 H        -1.380854         4.462656        -0.296381
 H        -3.248979         3.460735         0.737907
 H        -3.074223         0.899012         0.061296
