19
Iteration:  3883
 O        -3.132237         1.641871         2.994404
 C        -2.250310         1.880021         1.920812
 C        -0.794979         1.572162         2.122280
 C        -0.694324         1.350143         0.585229
 O        -0.239331         0.027668         0.097670
 C        -0.185849         2.488097        -0.321590
 C        -0.972868         3.706840         0.397702
 C        -2.247652         2.977135         0.814955
 C        -2.266632         1.546037         0.442571
 H        -2.970495         2.217952         3.740807
 H        -0.170835         2.355988         2.521821
 H        -0.456574         0.778636         2.666223
 H        -0.601572        -0.638183         0.697455
 H         0.864827         2.517016        -0.444215
 H        -0.641987         2.393050        -1.309098
 H        -0.466551         4.222155         1.211545
 H        -1.179341         4.457058        -0.399661
 H        -3.063199         3.642577         0.765058
 H        -2.997705         0.964626        -0.108695
