19
Iteration:  1253
 O        -3.121087         1.873951         3.005552
 C        -2.195746         1.903223         1.945569
 C        -0.758566         1.411688         2.044468
 C        -0.760971         1.256528         0.516855
 O        -0.241438         0.021427         0.057032
 C        -0.072258         2.520948        -0.063734
 C        -1.068013         3.718535         0.247790
 C        -2.284153         2.964344         0.868416
 C        -2.287076         1.552212         0.470539
 H        -2.796285         1.190368         3.588869
 H        -0.026801         2.251189         2.272349
 H        -0.426206         0.498795         2.600536
 H        -1.035145        -0.491323        -0.017076
 H         0.951234         2.591299         0.421953
 H         0.199434         2.349510        -1.119394
 H        -0.757708         4.503317         0.931802
 H        -1.356415         4.233968        -0.669502
 H        -3.285454         3.376156         1.012599
 H        -3.124775         1.122068        -0.022430
