19
Iteration:  4239
 O        -3.046927         1.693195         2.941917
 C        -2.157978         2.030178         1.972049
 C        -0.689203         1.485830         2.157802
 C        -0.747678         1.242855         0.549055
 O        -0.293730        -0.014693        -0.045880
 C        -0.141176         2.582214        -0.171891
 C        -1.044070         3.719309         0.379016
 C        -2.399265         2.984606         0.815260
 C        -2.274976         1.504607         0.512189
 H        -3.741251         2.382115         3.111151
 H        -0.064403         2.189225         2.611836
 H        -0.679771         0.467584         2.679893
 H         0.581023        -0.365016         0.305205
 H         1.023660         2.564041        -0.071730
 H        -0.476583         2.246208        -1.125582
 H        -0.543109         4.202268         1.302720
 H        -1.352250         4.479252        -0.384079
 H        -3.357341         3.465108         0.620981
 H        -3.066778         0.790304         0.405486
