19
Iteration:  4913charge 0 multiplicity 1
 O        -3.033889         1.831287         3.025776
 C        -2.165680         1.918193         1.959774
 C        -0.813738         1.364700         2.059224
 C        -0.723188         1.310667         0.496984
 O        -0.249237         0.005181         0.070015
 C        -0.106539         2.559646         0.000825
 C        -1.131391         3.713711         0.219208
 C        -2.341071         2.998904         0.862931
 C        -2.284772         1.556840         0.480073
 H        -2.772644         0.994428         3.358925
 H        -0.082549         1.821214         2.749624
 H        -0.918905         0.346787         2.380344
 H         0.084116        -0.114877        -0.817547
 H         0.853850         2.903981         0.481053
 H         0.122322         2.503950        -1.063133
 H        -0.828562         4.536720         0.794360
 H        -1.429332         4.150466        -0.768050
 H        -3.303351         3.481490         0.615807
 H        -2.979989         0.802105         0.155972
