19
Iteration:  3137charge 0 multiplicity 1
 O        -3.103667         1.623611         2.902331
 C        -2.131020         1.953989         1.980051
 C        -0.666029         1.464277         2.039608
 C        -0.768032         1.282689         0.432334
 O        -0.159312        -0.034988         0.332145
 C        -0.257479         2.536310        -0.326521
 C        -1.093293         3.714102         0.232123
 C        -2.260170         3.059303         0.965672
 C        -2.354528         1.605487         0.593593
 H        -3.044506         2.274022         3.596401
 H         0.075077         2.068805         2.488781
 H        -0.916521         0.544684         2.661879
 H        -0.350664        -0.475242        -0.555081
 H         0.796673         2.739179        -0.112140
 H        -0.185391         2.412833        -1.402538
 H        -0.406889         4.412631         0.739723
 H        -1.556765         4.295719        -0.597666
 H        -3.130594         3.633048         0.720551
 H        -3.282182         1.148994         0.078340
