19
Iteration:  4187
 O        -2.971935         1.958427         3.153322
 C        -2.220246         1.845408         1.897449
 C        -0.876166         1.278562         2.132718
 C        -0.714246         1.242109         0.531012
 O        -0.214182         0.109940        -0.034962
 C        -0.135040         2.569268        -0.064628
 C        -1.118546         3.687309         0.285744
 C        -2.325489         2.939142         0.836774
 C        -2.253388         1.412370         0.412691
 H        -3.748251         2.574178         2.950234
 H        -0.266173         1.844239         2.884343
 H        -1.057227         0.294657         2.618492
 H         0.520728         0.244423        -0.675884
 H         0.816908         2.820677         0.339179
 H        -0.004376         2.318161        -1.142442
 H        -0.709166         4.378672         0.986522
 H        -1.414696         4.327342        -0.564679
 H        -3.284067         3.474100         1.018691
 H        -2.734116         0.813056        -0.322204
