19
Iteration:  4390
 O        -3.116881         1.936598         2.965228
 C        -2.171411         1.959637         2.006723
 C        -0.725364         1.346425         2.031344
 C        -0.777707         1.281242         0.503914
 O        -0.173582         0.042303        -0.039833
 C        -0.170170         2.510631        -0.185925
 C        -1.096543         3.692645         0.367532
 C        -2.348147         2.955162         0.854557
 C        -2.312295         1.475544         0.587384
 H        -3.320964         1.058078         3.337823
 H         0.056591         1.953174         2.543983
 H        -0.904884         0.359874         2.563355
 H         0.754671        -0.054271         0.293473
 H         0.878823         2.619669         0.242350
 H         0.125689         2.509109        -1.230792
 H        -0.551459         4.419360         1.049866
 H        -1.346347         4.396301        -0.418217
 H        -3.348124         3.459523         1.035942
 H        -3.062408         0.844140         0.143451
