19
Iteration:   440charge 0 multiplicity 1
 O        -3.334891         1.888532         2.979288
 C        -2.208886         1.857503         1.981134
 C        -0.769148         1.356828         2.114605
 C        -0.720736         1.258289         0.596478
 O        -0.140275         0.042026         0.064678
 C        -0.193541         2.488391        -0.126997
 C        -0.965263         3.680764         0.288909
 C        -2.234345         2.965048         0.781236
 C        -2.261112         1.552714         0.472502
 H        -2.921539         2.155449         3.864807
 H        -0.174733         2.007450         2.720600
 H        -0.697753         0.358328         2.475714
 H         0.353829         0.404119        -0.682184
 H         0.945807         2.502368        -0.073720
 H        -0.485027         2.428154        -1.204139
 H        -0.540751         4.280939         1.158102
 H        -1.146916         4.422365        -0.468083
 H        -3.141053         3.565747         0.688689
 H        -2.940834         0.943203        -0.113567
