19
Iteration:  3531
 O        -3.108813         1.630479         2.896539
 C        -2.084994         1.963191         1.947409
 C        -0.643179         1.600404         2.015091
 C        -0.737029         1.213835         0.531464
 O        -0.297703        -0.066797         0.293059
 C        -0.187390         2.619366        -0.323080
 C        -1.019563         3.672299         0.375335
 C        -2.399704         2.995253         0.817237
 C        -2.392862         1.559752         0.565248
 H        -3.049956         2.214896         3.752017
 H         0.172856         2.372607         2.090357
 H        -0.372873         0.721635         2.647357
 H         0.318112        -0.191035        -0.441263
 H         0.920863         2.831202        -0.342976
 H        -0.510666         2.441150        -1.483531
 H        -0.523040         4.072108         1.244762
 H        -1.219058         4.456911        -0.363545
 H        -3.215983         3.625373         0.987253
 H        -3.028032         0.811079         0.099028
