19
Iteration:  3145
 O        -3.100042         1.660981         2.833559
 C        -2.063758         2.008779         1.996004
 C        -0.710863         1.494468         1.961087
 C        -0.794826         1.291177         0.474141
 O        -0.170821        -0.065532         0.322681
 C        -0.227521         2.504068        -0.317442
 C        -1.078970         3.698046         0.259866
 C        -2.344241         3.090981         0.992434
 C        -2.286458         1.551511         0.616029
 H        -3.173110         2.159537         3.605466
 H         0.139965         2.027047         2.391599
 H        -0.823187         0.487514         2.428775
 H        -0.180264        -0.353985        -0.642648
 H         0.789168         2.784382        -0.040147
 H        -0.427309         2.295278        -1.344554
 H        -0.502995         4.423861         0.894898
 H        -1.553922         4.308555        -0.513332
 H        -3.277010         3.618331         0.949784
 H        -3.152905         0.923252         0.352636
