19
Iteration:   927
 O        -3.096782         1.840658         3.020959
 C        -2.236549         1.962481         1.947819
 C        -0.755696         1.451020         2.023199
 C        -0.738989         1.252728         0.474604
 O        -0.291534        -0.028302         0.204906
 C        -0.173736         2.534430        -0.187024
 C        -1.004587         3.631846         0.374439
 C        -2.360768         2.973015         0.829259
 C        -2.232665         1.580890         0.409917
 H        -2.816731         1.091212         3.648253
 H        -0.049213         2.186788         2.468316
 H        -0.688554         0.476049         2.527677
 H         0.453243        -0.121820        -0.392416
 H         0.861994         2.746415         0.020808
 H        -0.221416         2.583824        -1.259862
 H        -0.392429         4.179812         1.088624
 H        -1.105962         4.427028        -0.391803
 H        -3.311930         3.477512         0.716400
 H        -3.069647         1.194134        -0.139042
