19
Iteration:  4908
 O        -3.022298         1.819846         3.046402
 C        -2.172715         1.966207         1.938869
 C        -0.814241         1.390543         2.110726
 C        -0.686687         1.311632         0.546880
 O        -0.269712        -0.032053         0.060097
 C        -0.103881         2.574236        -0.000106
 C        -1.166592         3.749147         0.180107
 C        -2.340466         2.984745         0.844775
 C        -2.276497         1.525636         0.428170
 H        -2.923294         0.905171         3.483618
 H         0.000036         1.717196         2.844094
 H        -0.820364         0.258014         2.282558
 H        -0.008940         0.124616        -0.898174
 H         0.857738         2.721081         0.511172
 H         0.156878         2.590759        -1.077138
 H        -0.694994         4.520727         0.909769
 H        -1.397105         4.134762        -0.808610
 H        -3.329626         3.443746         0.858616
 H        -3.017482         0.835665        -0.035835
