19
Iteration:  2578
 O        -3.075328         1.868496         3.104993
 C        -2.204354         1.861635         1.962078
 C        -0.670328         1.595721         2.029639
 C        -0.776034         1.264958         0.437878
 O        -0.373224        -0.031199        -0.008075
 C        -0.159623         2.543920        -0.260577
 C        -1.005071         3.701123         0.358270
 C        -2.297353         2.944554         0.827493
 C        -2.264796         1.454238         0.561310
 H        -3.008880         1.060884         3.656748
 H        -0.050182         2.493795         2.239807
 H        -0.265149         0.790943         2.654283
 H        -0.139551        -0.637124         0.695625
 H         0.950850         2.624568        -0.161661
 H        -0.404912         2.667428        -1.321914
 H        -0.550843         4.236098         1.246459
 H        -1.254079         4.571979        -0.299474
 H        -3.198654         3.411269         1.189865
 H        -2.957748         0.866647        -0.088819
