19
Iteration:  4627
 O        -3.212613         1.823730         2.903125
 C        -2.143311         1.948099         1.951870
 C        -0.657498         1.478450         2.020541
 C        -0.740478         1.254280         0.507856
 O        -0.222464         0.031171         0.133560
 C        -0.225305         2.498097        -0.290010
 C        -1.031282         3.697738         0.396228
 C        -2.230207         3.072766         0.948245
 C        -2.347260         1.464504         0.587793
 H        -3.527219         0.934002         2.984025
 H         0.180219         2.052293         2.482377
 H        -0.447270         0.501387         2.356338
 H         0.639664         0.183996        -0.355025
 H         0.853404         2.521056        -0.240286
 H        -0.498009         2.332403        -1.260351
 H        -0.447944         4.150304         1.108810
 H        -1.370282         4.406197        -0.379510
 H        -3.306784         3.365029         1.103887
 H        -3.195255         0.790976         0.506877
