19
Iteration:  2465charge 0 multiplicity 1
 O        -2.958995         1.880277         3.118876
 C        -2.168547         2.024191         1.970982
 C        -0.716631         1.535113         2.086792
 C        -0.827635         1.246139         0.522962
 O        -0.220413         0.006104        -0.054352
 C        -0.179161         2.483926        -0.012921
 C        -1.074229         3.653349         0.260232
 C        -2.412377         2.955780         0.740706
 C        -2.336278         1.433207         0.504908
 H        -2.440606         1.093417         3.513360
 H         0.148553         2.193175         2.399041
 H        -0.615207         0.706857         2.791399
 H        -0.942657        -0.258698        -0.668426
 H         0.826136         2.617277         0.380687
 H        -0.034383         2.471299        -1.115478
 H        -0.464464         4.264781         0.936258
 H        -1.301832         4.312208        -0.567921
 H        -3.323541         3.527770         0.800532
 H        -2.984087         0.789708        -0.021965
