19
Iteration:  3346charge 0 multiplicity 1
 O        -2.990093         1.749049         3.072539
 C        -2.246263         1.856704         1.954351
 C        -0.731342         1.513009         2.156818
 C        -0.724994         1.405915         0.537763
 O        -0.203847        -0.024745         0.241481
 C        -0.241445         2.574690        -0.418572
 C        -1.010280         3.652557         0.324944
 C        -2.347445         3.004054         0.853992
 C        -2.306741         1.487028         0.462486
 H        -3.929169         2.071910         3.033567
 H         0.017538         2.142812         2.635191
 H        -0.552575         0.473038         2.515167
 H        -0.253352        -0.298093        -0.695562
 H         0.823342         2.681180        -0.410471
 H        -0.607012         2.361862        -1.401436
 H        -0.179828         3.913039         1.023125
 H        -1.330938         4.557199        -0.267734
 H        -3.328465         3.519509         0.795812
 H        -2.828222         0.934625        -0.334893
