19
Iteration:  3929
 O        -3.265199         1.683650         2.879680
 C        -2.089783         2.035526         1.983659
 C        -0.625566         1.409950         2.071329
 C        -0.725440         1.236027         0.511867
 O        -0.288116         0.005151         0.083545
 C        -0.158063         2.584396        -0.174202
 C        -1.032181         3.725741         0.276939
 C        -2.321534         2.980200         0.873091
 C        -2.269428         1.530271         0.570762
 H        -3.339839         2.327830         3.644579
 H         0.306244         1.886019         2.531813
 H        -0.717594         0.532123         2.666858
 H         0.611930        -0.216289         0.414805
 H         0.880709         2.914804        -0.209265
 H        -0.454810         2.345381        -1.184042
 H        -0.531456         4.342523         1.013910
 H        -1.395026         4.367798        -0.536390
 H        -3.319429         3.503149         0.927301
 H        -3.110652         0.820147         0.311831
