19
Iteration:  2851charge 0 multiplicity 1
 O        -2.969498         1.912956         3.058541
 C        -2.162408         1.939665         1.961815
 C        -0.702156         1.406760         2.160513
 C        -0.730488         1.217011         0.552841
 O        -0.331691         0.030547        -0.084843
 C        -0.156236         2.571188        -0.108297
 C        -1.110225         3.694599         0.284725
 C        -2.371592         2.909863         0.764403
 C        -2.286458         1.471626         0.601882
 H        -3.767993         1.547269         2.747785
 H         0.145745         2.051898         2.486758
 H        -0.763410         0.396781         2.542219
 H         0.491838         0.324894        -0.491495
 H         0.884937         2.714876         0.302938
 H         0.008073         2.339700        -1.190974
 H        -0.644394         4.188184         1.159433
 H        -1.490577         4.429144        -0.420432
 H        -3.343422         3.495582         0.875941
 H        -3.046969         0.764528         0.158498
