19
Iteration:  1730
 O        -3.059436         2.003202         3.027465
 C        -2.242725         1.957037         1.966517
 C        -0.745321         1.489570         2.084711
 C        -0.734175         1.208327         0.566291
 O        -0.330609        -0.008689        -0.065101
 C        -0.029312         2.511342        -0.041997
 C        -1.134597         3.718117         0.377724
 C        -2.402362         2.869904         0.790865
 C        -2.213149         1.382681         0.441582
 H        -2.825849         1.192325         3.492791
 H        -0.041107         2.278023         2.435716
 H        -0.685897         0.587810         2.701285
 H         0.618745         0.041192         0.016741
 H         0.949515         2.796888         0.334365
 H         0.019872         2.618742        -1.150103
 H        -0.741096         4.474515         1.054190
 H        -1.217698         4.257556        -0.545937
 H        -3.420488         3.228231         0.553616
 H        -2.985300         0.846470        -0.158526
