19
Iteration:  1921charge 0 multiplicity 1
 O        -3.146927         2.021593         2.986040
 C        -2.153695         2.009239         2.033637
 C        -0.665752         1.382429         2.161552
 C        -0.738519         1.198978         0.528160
 O        -0.185514         0.071205        -0.148672
 C        -0.205713         2.455102        -0.089726
 C        -1.110081         3.587462         0.247793
 C        -2.335276         2.957759         0.860932
 C        -2.286821         1.466417         0.649281
 H        -3.341196         1.087320         3.256299
 H         0.018699         2.072038         2.768769
 H        -0.840798         0.386058         2.613458
 H         0.580651         0.516185        -0.600742
 H         0.839467         2.495159         0.313857
 H        -0.158894         2.383982        -1.194750
 H        -0.602075         4.336554         0.922445
 H        -1.380456         4.073859        -0.724880
 H        -3.320430         3.405541         0.842028
 H        -3.107563         0.953381         0.067826
