19
Iteration:  3469
 O        -3.077165         1.795885         2.985727
 C        -2.174906         1.986356         2.034292
 C        -0.739834         1.385588         2.074173
 C        -0.786596         1.211816         0.485321
 O        -0.078060         0.114667         0.045097
 C        -0.180571         2.454209        -0.133226
 C        -1.104999         3.695333         0.219095
 C        -2.339224         2.993659         0.803365
 C        -2.349721         1.467350         0.648068
 H        -3.089952         2.630943         3.569123
 H         0.140773         1.895148         2.517824
 H        -0.884980         0.504536         2.624410
 H        -0.221130        -0.181393        -0.865338
 H         0.767235         2.707151         0.272795
 H         0.039587         2.270516        -1.138474
 H        -0.779348         4.561001         0.827791
 H        -1.405216         4.218493        -0.735243
 H        -3.309299         3.454105         0.801201
 H        -3.238468         0.910831         0.424038
