19
Iteration:  1453
 O        -3.121396         1.832334         2.904687
 C        -2.121345         2.046480         2.016789
 C        -0.761149         1.380736         2.120270
 C        -0.754293         1.363673         0.518056
 O        -0.245853         0.068124         0.080756
 C        -0.227865         2.503556        -0.225264
 C        -1.054159         3.620482         0.238781
 C        -2.214769         2.999632         0.910063
 C        -2.327117         1.451839         0.630026
 H        -3.551511         0.932301         2.780796
 H         0.031164         1.798271         2.700287
 H        -0.956518         0.278279         2.471051
 H         0.714501         0.081790         0.255537
 H         0.888646         2.433977        -0.174771
 H        -0.474261         2.328386        -1.266689
 H        -0.450552         4.224776         0.881554
 H        -1.306645         4.254882        -0.628400
 H        -2.980122         3.729760         1.033223
 H        -3.093735         1.018542         0.040814
