19
Iteration:  4050
 O        -3.204308         1.703189         3.002354
 C        -2.233905         1.928863         1.984217
 C        -0.754193         1.470661         2.114398
 C        -0.707289         1.280749         0.486481
 O        -0.194167         0.001552         0.129326
 C        -0.073461         2.522654        -0.300073
 C        -1.065342         3.655095         0.348998
 C        -2.264498         3.014404         0.945523
 C        -2.338006         1.495556         0.486343
 H        -3.166932         2.552289         3.374214
 H        -0.201973         2.286007         2.525384
 H        -0.500749         0.565438         2.614024
 H         0.162698        -0.084760        -0.750272
 H         0.971623         2.900422        -0.152052
 H        -0.243255         2.559195        -1.345425
 H        -0.436205         4.304577         1.026864
 H        -1.287503         4.354519        -0.492796
 H        -3.217285         3.602756         0.896237
 H        -3.049805         1.128300        -0.222017
