19
Iteration:  4431charge 0 multiplicity 1
 O        -3.100119         1.759452         2.966812
 C        -2.174795         1.790449         1.996269
 C        -0.758147         1.509675         2.149063
 C        -0.726196         1.364921         0.523122
 O        -0.412989         0.029649         0.077771
 C        -0.145185         2.547208        -0.217231
 C        -1.012621         3.704797         0.290320
 C        -2.269505         3.006943         0.843259
 C        -2.260143         1.515481         0.487093
 H        -2.918605         0.880213         3.297633
 H        -0.084149         2.318141         2.557504
 H        -0.450643         0.577390         2.484745
 H         0.476195        -0.109749         0.476720
 H         0.919028         2.721347        -0.001608
 H        -0.243613         2.389187        -1.418686
 H        -0.578244         4.292899         1.152920
 H        -1.369841         4.521214        -0.400757
 H        -3.286166         3.565901         0.891532
 H        -2.687415         0.821233        -0.254922
