19
Iteration:  3091
 O        -3.081125         1.798235         3.008705
 C        -2.137323         2.023102         1.968363
 C        -0.702933         1.550069         2.156636
 C        -0.750334         1.286212         0.560299
 O        -0.270333         0.018733        -0.012979
 C        -0.126498         2.531148        -0.163776
 C        -1.120220         3.619369         0.305908
 C        -2.352697         2.898876         0.766479
 C        -2.229998         1.368928         0.583682
 H        -2.925998         2.319825         3.755424
 H        -0.017223         2.288619         2.534549
 H        -0.588506         0.560333         2.602536
 H        -0.609686         0.094680        -0.940428
 H         0.894902         2.838345         0.122808
 H        -0.031576         2.454615        -1.220249
 H        -0.829074         4.262677         1.172849
 H        -1.383917         4.346330        -0.473954
 H        -3.317730         3.339068         0.617746
 H        -3.105798         0.958606         0.129825
