19
Iteration:  2991charge 0 multiplicity 1
 O        -2.952442         1.759575         2.991680
 C        -2.097865         1.972055         1.905263
 C        -0.643153         1.521330         2.044477
 C        -0.747925         1.297249         0.486302
 O        -0.253999         0.012652         0.195213
 C        -0.181575         2.556705        -0.155468
 C        -1.113110         3.672018         0.340231
 C        -2.378393         2.950013         0.830641
 C        -2.405417         1.460470         0.522380
 H        -3.876230         1.824930         2.659809
 H         0.092811         2.289707         2.301622
 H        -0.606745         0.594014         2.542003
 H        -0.125136        -0.203817        -0.716201
 H         0.910705         2.626805         0.021627
 H        -0.227233         2.484104        -1.231277
 H        -0.605691         4.197260         1.216426
 H        -1.602504         4.353692        -0.391892
 H        -3.339089         3.596086         0.834884
 H        -3.080536         0.597644         0.457718
