19
Iteration:  4414
 O        -3.112687         1.767813         3.054735
 C        -2.228804         1.961813         1.952674
 C        -0.746284         1.412968         2.131176
 C        -0.681160         1.311998         0.589288
 O        -0.328213         0.064849         0.014068
 C        -0.158346         2.525365        -0.191662
 C        -1.051493         3.720574         0.283085
 C        -2.319335         3.005251         0.851219
 C        -2.175008         1.493980         0.428129
 H        -2.966339         0.947236         3.471743
 H        -0.128807         2.033531         2.773136
 H        -0.962684         0.392111         2.661486
 H         0.475536        -0.387375         0.364717
 H         0.940158         2.724328        -0.408259
 H        -0.400051         2.373428        -1.212866
 H        -0.478358         4.417559         0.943043
 H        -1.304088         4.467341        -0.482587
 H        -3.345278         3.313541         0.749777
 H        -3.034807         1.094281        -0.126073
