19
Iteration:  2852charge 0 multiplicity 1
 O        -2.967489         1.920230         3.060506
 C        -2.159506         1.923005         1.964164
 C        -0.708176         1.408126         2.154488
 C        -0.723383         1.219771         0.559149
 O        -0.339200         0.031231        -0.081235
 C        -0.153128         2.570111        -0.106256
 C        -1.114798         3.693631         0.287996
 C        -2.374370         2.907459         0.760557
 C        -2.278073         1.471017         0.601892
 H        -3.795552         1.584647         2.722595
 H         0.162641         2.036791         2.473905
 H        -0.759910         0.365697         2.525900
 H         0.479853         0.355875        -0.514416
 H         0.886817         2.706958         0.286179
 H        -0.004219         2.355184        -1.193699
 H        -0.657238         4.219755         1.144840
 H        -1.500237         4.447106        -0.408752
 H        -3.343565         3.507996         0.863650
 H        -3.004335         0.756147         0.133047
