19
Iteration:  3774
 O        -3.010643         1.856220         3.038059
 C        -2.071752         1.971071         1.956332
 C        -0.748430         1.288199         2.101435
 C        -0.754291         1.237710         0.520324
 O        -0.144183         0.058992        -0.015192
 C        -0.162531         2.565943        -0.010923
 C        -1.226608         3.688580         0.191649
 C        -2.376661         2.976139         0.769745
 C        -2.298721         1.504867         0.491696
 H        -3.209498         2.678191         3.438182
 H         0.107088         1.961308         2.502422
 H        -0.984133         0.397477         2.632225
 H        -0.395763        -0.706500         0.527601
 H         0.729568         2.706294         0.528758
 H         0.118997         2.463735        -1.055768
 H        -1.028326         4.374583         0.973500
 H        -1.354311         4.224400        -0.744065
 H        -3.361912         3.399176         0.988796
 H        -3.048004         0.943504        -0.046592
