19
Iteration:  3087charge 0 multiplicity 1
 O        -3.080565         1.822001         2.966815
 C        -2.096828         2.052548         2.024545
 C        -0.692399         1.531881         2.116772
 C        -0.751479         1.264929         0.546341
 O        -0.247927        -0.027095        -0.030287
 C        -0.140131         2.553928        -0.110148
 C        -1.157934         3.658226         0.325835
 C        -2.354334         2.863642         0.745127
 C        -2.258869         1.380299         0.586764
 H        -2.961388         2.394450         3.816693
 H         0.047630         2.314777         2.511991
 H        -0.682766         0.602701         2.684891
 H        -0.516345         0.066746        -0.944618
 H         0.909092         2.852359         0.072210
 H        -0.005709         2.373347        -1.220889
 H        -0.821507         4.213913         1.218156
 H        -1.393787         4.383018        -0.464219
 H        -3.363998         3.404991         0.729639
 H        -3.109412         0.876339         0.150020
