19
Iteration:  1409
 O        -3.106905         1.984779         3.047955
 C        -2.184450         1.930729         1.924059
 C        -0.769485         1.507102         2.041780
 C        -0.733652         1.208031         0.501724
 O        -0.419877        -0.006573        -0.058154
 C         0.015880         2.636758        -0.079342
 C        -1.078075         3.656995         0.336671
 C        -2.305505         2.855880         0.868635
 C        -2.262322         1.406863         0.496625
 H        -3.025216         1.104190         3.521377
 H        -0.063071         2.211582         2.429203
 H        -0.579100         0.495216         2.599488
 H         0.423964        -0.243241         0.369935
 H         0.841245         2.905942         0.656723
 H         0.444704         2.660745        -1.077033
 H        -0.710751         4.507547         0.881610
 H        -1.558162         4.038434        -0.601733
 H        -3.234053         3.368083         0.751857
 H        -2.891297         0.753031        -0.094328
