19
Iteration:  1226
 O        -3.211469         2.004316         3.013290
 C        -2.218182         2.047235         1.980753
 C        -0.799783         1.332940         2.153620
 C        -0.715931         1.197344         0.552225
 O        -0.112459         0.132579        -0.158069
 C        -0.118710         2.512970        -0.150290
 C        -1.029640         3.591681         0.267794
 C        -2.274916         2.968692         0.900566
 C        -2.285036         1.471219         0.584509
 H        -3.031976         1.123588         3.304753
 H         0.098470         1.719743         2.670763
 H        -0.846988         0.335558         2.568239
 H        -0.471260        -0.638474         0.264252
 H         0.934046         2.602374         0.121864
 H        -0.210064         2.329424        -1.243663
 H        -0.728239         4.372920         0.991881
 H        -1.365438         4.075382        -0.668971
 H        -3.273989         3.402335         0.957323
 H        -3.191672         0.916362         0.235286
