19
Iteration:  4023
 O        -3.123295         1.880704         3.009889
 C        -2.148860         1.918299         1.976646
 C        -0.746565         1.247973         2.111104
 C        -0.683345         1.297336         0.596197
 O        -0.252907         0.117735         0.030768
 C        -0.162636         2.525544        -0.073831
 C        -1.133902         3.722948         0.258037
 C        -2.322866         2.909125         0.801708
 C        -2.233387         1.450050         0.514922
 H        -3.303541         2.797785         3.047639
 H         0.080214         1.685865         2.727441
 H        -0.815955         0.165317         2.398152
 H         0.399024         0.156252        -0.657362
 H         0.859495         2.814208         0.123324
 H        -0.352719         2.394189        -1.196130
 H        -0.756023         4.387284         1.049242
 H        -1.156618         4.407865        -0.583416
 H        -3.326199         3.273723         0.716918
 H        -3.011794         0.959873        -0.123594
