19
Iteration:  2351
 O        -2.934678         2.043200         3.133924
 C        -2.164600         1.855640         1.900222
 C        -0.756049         1.448295         2.059051
 C        -0.735985         1.272736         0.495978
 O        -0.312509         0.020458        -0.032293
 C        -0.182629         2.567009        -0.145306
 C        -1.185263         3.663033         0.314765
 C        -2.351148         2.933241         0.908376
 C        -2.305185         1.411979         0.437431
 H        -2.881645         1.184043         3.625562
 H         0.058775         1.949653         2.624068
 H        -0.829422         0.357702         2.480095
 H         0.656131        -0.143082         0.152631
 H         0.884871         2.669235         0.161606
 H        -0.050148         2.378267        -1.204928
 H        -0.542375         4.221412         0.951972
 H        -1.487142         4.296105        -0.545097
 H        -3.361288         3.406343         0.969874
 H        -2.909102         0.726322        -0.128220
