19
Iteration:  4828charge 0 multiplicity 1
 O        -3.148254         1.887489         3.005702
 C        -2.232760         1.925058         1.931870
 C        -0.794774         1.458541         2.082396
 C        -0.664475         1.281510         0.519195
 O        -0.100096         0.086009         0.079153
 C        -0.247133         2.488308        -0.274049
 C        -0.980734         3.725923         0.463313
 C        -2.306952         2.974287         0.857619
 C        -2.308539         1.428669         0.488655
 H        -3.113535         1.041411         3.561953
 H        -0.042520         1.943077         2.693879
 H        -0.990477         0.342183         2.387556
 H        -0.575427        -0.324978        -0.671765
 H         0.821331         2.621133        -0.364194
 H        -0.712757         2.355547        -1.300754
 H        -0.415280         4.178365         1.354730
 H        -1.125893         4.540700        -0.290193
 H        -3.277246         3.449844         1.024993
 H        -2.744783         0.776435        -0.215891
