19
Iteration:  1274
 O        -3.008039         1.812506         2.955259
 C        -2.153343         1.901736         1.933947
 C        -0.752882         1.532781         2.078222
 C        -0.735603         1.355506         0.489098
 O        -0.394522        -0.033323         0.186337
 C        -0.050512         2.612920        -0.141290
 C        -1.063691         3.658408         0.367641
 C        -2.347988         2.970722         0.808688
 C        -2.241054         1.468008         0.414348
 H        -2.928383         0.997944         3.571687
 H         0.004170         2.087109         2.734087
 H        -0.729650         0.550072         2.489056
 H        -1.263343        -0.329413        -0.215659
 H         0.964311         2.552221         0.248094
 H         0.003322         2.366927        -1.224711
 H        -0.581033         4.319328         1.084770
 H        -1.390112         4.295926        -0.452746
 H        -3.223565         3.626612         0.747956
 H        -2.852007         0.946282        -0.292655
