19
Iteration:  3453charge 0 multiplicity 1
 O        -3.053754         1.902190         3.076150
 C        -2.087817         2.056928         1.963394
 C        -0.752007         1.328451         1.989533
 C        -0.771174         1.222890         0.495459
 O        -0.055420         0.044291         0.042192
 C        -0.097623         2.572461        -0.002288
 C        -1.219799         3.578482         0.227036
 C        -2.414334         2.948012         0.866485
 C        -2.372390         1.472801         0.534938
 H        -3.208695         2.761143         3.462679
 H         0.134607         1.867331         2.367117
 H        -0.909349         0.240454         2.371309
 H        -0.283731        -0.085060        -0.922941
 H         0.857941         2.524323         0.595143
 H         0.033261         2.582526        -1.159243
 H        -0.803388         4.411165         0.810405
 H        -1.503716         4.003196        -0.737070
 H        -3.419856         3.415680         0.765031
 H        -3.140603         0.850476         0.030142
