19
Iteration:  2130
 O        -2.994062         1.998343         3.134338
 C        -2.079036         2.014951         1.990128
 C        -0.748590         1.244892         2.137684
 C        -0.761555         1.217820         0.517504
 O        -0.313172         0.067792        -0.123022
 C        -0.086489         2.575297        -0.090629
 C        -1.175682         3.696115         0.172995
 C        -2.311585         2.948110         0.814652
 C        -2.334006         1.392137         0.583255
 H        -3.731329         1.460981         2.862923
 H         0.144297         1.728555         2.623863
 H        -0.854151         0.260004         2.603784
 H         0.634441        -0.007162         0.167472
 H         0.790493         2.942651         0.509510
 H         0.135448         2.605856        -1.153477
 H        -1.030606         4.507596         0.888709
 H        -1.495495         4.186985        -0.792729
 H        -3.318260         3.369906         0.945758
 H        -2.974601         0.697386         0.017496
