19
Iteration:   375charge 0 multiplicity 1
 O        -3.095692         1.787774         2.983078
 C        -2.284335         1.891672         1.912587
 C        -0.810784         1.506768         2.052844
 C        -0.748350         1.328611         0.522253
 O        -0.340795         0.000048         0.124154
 C        -0.026169         2.533749        -0.117720
 C        -1.027762         3.624711         0.325677
 C        -2.297936         3.026082         0.843217
 C        -2.218905         1.591389         0.438753
 H        -2.953815         0.901375         3.307483
 H        -0.130066         2.128326         2.609229
 H        -0.732070         0.476415         2.472183
 H         0.297639        -0.414648         0.757653
 H         1.064446         2.637301         0.200424
 H        -0.219086         2.408601        -1.201787
 H        -0.660633         4.374549         0.984164
 H        -1.185122         4.317861        -0.464175
 H        -3.286007         3.365441         0.556203
 H        -2.828867         1.046098        -0.307255
