19
Iteration:  2859
 O        -2.987070         1.964952         3.077730
 C        -2.112713         1.834495         1.998247
 C        -0.732941         1.387163         2.082256
 C        -0.702094         1.286281         0.592983
 O        -0.371967         0.049521        -0.054214
 C        -0.127399         2.541578        -0.096926
 C        -1.162473         3.684745         0.322157
 C        -2.369941         2.918226         0.762772
 C        -2.225543         1.422486         0.559529
 H        -3.860796         1.932064         2.755809
 H         0.117946         1.890607         2.536159
 H        -0.692349         0.396612         2.474702
 H         0.296105         0.292898        -0.690878
 H         0.925878         2.739044         0.194355
 H        -0.201650         2.505723        -1.201211
 H        -0.794156         4.426413         1.072973
 H        -1.376073         4.432438        -0.467877
 H        -3.316397         3.434460         0.759930
 H        -2.736698         0.693519        -0.091441
