19
Iteration:  1319
 O        -3.158894         1.922898         2.912792
 C        -2.158079         1.924152         1.997913
 C        -0.757684         1.509622         2.064549
 C        -0.780979         1.271030         0.504126
 O        -0.170685         0.034015         0.117023
 C        -0.229957         2.392321        -0.293272
 C        -0.979009         3.650262         0.393853
 C        -2.234495         2.990172         0.944132
 C        -2.335675         1.507100         0.587739
 H        -3.455678         0.943918         2.892547
 H        -0.072572         2.160355         2.637188
 H        -0.484566         0.506459         2.490764
 H         0.039046         0.010877        -0.862481
 H         0.872476         2.526658        -0.149982
 H        -0.529488         2.458878        -1.347381
 H        -0.365971         4.183254         1.129156
 H        -1.191002         4.388508        -0.399775
 H        -3.241638         3.397012         1.041831
 H        -3.166682         1.059538         0.072557
