19
Iteration:   507
 O        -3.082790         1.894815         2.967972
 C        -2.235957         1.845563         1.916409
 C        -0.818402         1.472584         2.127003
 C        -0.674497         1.252141         0.596898
 O        -0.285575        -0.044327         0.012690
 C        -0.074153         2.604726        -0.024641
 C        -1.080340         3.696839         0.332798
 C        -2.246831         2.902366         0.810914
 C        -2.248711         1.443935         0.489972
 H        -3.708025         2.591144         2.850161
 H        -0.142962         2.069474         2.697640
 H        -0.765902         0.403167         2.506702
 H        -0.536478         0.133346        -0.932172
 H         0.918710         2.948715         0.448372
 H         0.213144         2.407936        -1.096147
 H        -0.617159         4.363440         1.123005
 H        -1.355606         4.367534        -0.514761
 H        -3.189309         3.466843         0.713285
 H        -2.952558         0.889035        -0.110967
