19
Iteration:  4248
 O        -3.092752         1.616262         2.947394
 C        -2.081341         2.036966         1.940649
 C        -0.720080         1.481741         2.178697
 C        -0.627896         1.312244         0.547504
 O        -0.372439         0.067711        -0.003982
 C        -0.150705         2.482136        -0.209994
 C        -1.086703         3.659860         0.369325
 C        -2.343919         2.989250         0.775018
 C        -2.262469         1.536211         0.541541
 H        -3.576113         2.438016         3.247372
 H        -0.040262         2.221263         2.619219
 H        -0.826504         0.518252         2.748693
 H         0.409731        -0.282588         0.522445
 H         0.954751         2.762354        -0.331871
 H        -0.533776         2.379614        -1.202228
 H        -0.732414         4.146105         1.352722
 H        -1.216273         4.427656        -0.405960
 H        -3.268801         3.519567         0.795048
 H        -3.029964         0.814005         0.201365
