19
Iteration:   296charge 0 multiplicity 1
 O        -3.221387         1.940848         3.047591
 C        -2.221746         1.901750         1.952620
 C        -0.745406         1.390843         2.166891
 C        -0.629760         1.282020         0.550861
 O        -0.183074         0.109673        -0.083543
 C        -0.124545         2.549803        -0.107579
 C        -1.033505         3.669044         0.332596
 C        -2.273903         2.894661         0.736029
 C        -2.229213         1.404674         0.572985
 H        -3.991728         2.364367         2.668320
 H        -0.221673         2.155998         2.744294
 H        -0.666400         0.459126         2.621769
 H        -0.823616        -0.623023         0.121683
 H         0.904933         2.547291         0.262879
 H        -0.039136         2.383932        -1.204735
 H        -0.619717         4.242581         1.117601
 H        -1.195845         4.255688        -0.544178
 H        -3.326935         3.204508         0.716856
 H        -3.022654         0.968741        -0.020027
