19
Iteration:  4807charge 0 multiplicity 1
 O        -3.090246         1.827618         3.018363
 C        -2.214385         1.887087         1.906359
 C        -0.791190         1.449562         2.092517
 C        -0.737853         1.293647         0.514475
 O        -0.215806         0.068312         0.217474
 C        -0.208966         2.607893        -0.338967
 C        -1.007093         3.632163         0.448550
 C        -2.282864         2.923877         0.835061
 C        -2.262446         1.533383         0.420894
 H        -2.953724         1.067514         3.536129
 H        -0.158092         2.210491         2.631920
 H        -0.634889         0.281342         2.453615
 H        -0.298220        -0.125221        -0.714275
 H         0.830445         2.832120        -0.179323
 H        -0.443070         2.346775        -1.418543
 H        -0.375591         3.890570         1.422689
 H        -1.231329         4.519043        -0.162670
 H        -3.258183         3.374211         0.598987
 H        -3.102303         1.218160        -0.119419
