19
Iteration:  3989
 C        -0.127564        -0.012227        -0.068096
 C         1.363380        -0.067702         0.076239
 C         2.275500         1.164892         0.065496
 C         3.225637        -0.007859         0.159988
 C         2.333404        -0.843130        -0.947019
 O         4.568664        -0.103833         0.752703
 C         4.361048        -0.272322         2.145664
 O         2.832995        -0.269820         2.387962
 C         2.316491        -0.781663         1.107457
 H        -0.570651         0.828991         0.593099
 H        -0.371739         0.333055        -1.087535
 H        -0.619041        -1.056689         0.132502
 H         2.307111         1.607671        -0.911318
 H         2.035398         1.741664         0.944822
 H         2.348398        -0.512708        -2.044498
 H         2.533482        -1.912203        -1.043582
 H         4.813835        -1.257890         2.266805
 H         4.867378         0.553972         2.567367
 H         2.169660        -1.843800         1.077161
