19
Iteration:   841
 C        -0.132833         0.021468         0.024608
 C         1.349409        -0.143408         0.087436
 C         2.281530         1.122355         0.163838
 C         3.219639        -0.114351         0.179678
 C         2.311011        -0.664058        -1.027534
 O         4.499613        -0.264815         0.606943
 C         4.291015        -0.189349         2.068129
 O         2.926350        -0.246289         2.386051
 C         2.369965        -0.793256         1.171212
 H        -0.718747         0.492628         0.868475
 H        -0.373462         0.709538        -0.789801
 H        -0.608258        -1.039320        -0.270847
 H         2.548157         1.785299        -0.760445
 H         2.360038         1.655068         1.123849
 H         2.234222        -0.073555        -1.958667
 H         2.295824        -1.682804        -1.191293
 H         4.887631        -0.886041         2.722796
 H         4.709018         0.820488         2.365864
 H         2.486634        -1.825350         1.207976
