19
Iteration:  1473charge 0 multiplicity 1
 C        -0.154410        -0.096561         0.012928
 C         1.351905        -0.048535         0.038483
 C         2.367973         1.197030         0.105423
 C         3.229795        -0.037285         0.131214
 C         2.380299        -0.709760        -0.991563
 O         4.507745        -0.310358         0.645334
 C         4.331213        -0.361099         2.057689
 O         2.861709        -0.137063         2.418469
 C         2.268008        -0.701406         1.210833
 H        -0.568557         0.507012         0.798357
 H        -0.590259         0.281210        -0.878685
 H        -0.336008        -1.139455         0.081083
 H         2.311454         1.779022        -0.878493
 H         2.382521         1.943145         0.962200
 H         2.123507        -0.072304        -1.869765
 H         2.487626        -1.766580        -1.035778
 H         4.835176        -1.329286         2.393608
 H         4.839081         0.555211         2.484715
 H         2.220078        -1.848445         1.356416
