19
Iteration:  3084charge 0 multiplicity 1
 C        -0.160605        -0.095494         0.040097
 C         1.379633        -0.054599         0.021237
 C         2.317460         1.190298         0.030509
 C         3.227439        -0.113950         0.189078
 C         2.404075        -0.681709        -0.983718
 O         4.584177        -0.207345         0.700516
 C         4.244555        -0.268783         2.088863
 O         2.826088        -0.195618         2.398408
 C         2.292045        -0.769524         1.105902
 H        -0.442579         0.662450         0.810686
 H        -0.411712         0.088036        -1.022750
 H        -0.250127        -1.082495         0.394291
 H         2.360844         1.817021        -0.848954
 H         2.195747         1.684893         0.986350
 H         2.502497        -0.177439        -1.924451
 H         2.426858        -1.844547        -1.082257
 H         4.581744        -1.198116         2.500749
 H         4.699013         0.549778         2.654472
 H         2.230810        -1.865054         1.258380
