19
Iteration:    20
 C        -0.105174        -0.138370        -0.001533
 C         1.343197        -0.073682        -0.012878
 C         2.303760         1.166139         0.091551
 C         3.211185        -0.146536         0.191283
 C         2.370015        -0.629235        -1.056037
 O         4.505607        -0.240306         0.604841
 C         4.320145        -0.366339         2.126267
 O         2.937603        -0.080418         2.459421
 C         2.245033        -0.714077         1.224542
 H        -0.425377         0.346839         1.022157
 H        -0.488801         0.395477        -0.761536
 H        -0.516422        -1.117825         0.101153
 H         2.434878         1.702921        -0.888525
 H         2.175184         1.775771         0.979710
 H         2.436445         0.005804        -1.914739
 H         2.351296        -1.709120        -1.333002
 H         4.592917        -1.364771         2.273112
 H         4.954890         0.403735         2.582032
 H         2.051059        -1.818749         1.367592
