19
Iteration:  2185charge 0 multiplicity 1
 C        -0.117781         0.101479        -0.008536
 C         1.385239        -0.019582         0.138803
 C         2.385717         1.073835         0.209355
 C         3.241138        -0.250744         0.094241
 C         2.389707        -0.765709        -0.951177
 O         4.487863        -0.255415         0.667818
 C         4.259509        -0.014350         2.004066
 O         2.848267        -0.278826         2.323905
 C         2.282245        -0.880020         1.183638
 H        -0.423898         0.658359         0.928156
 H        -0.398859         0.683725        -0.901500
 H        -0.667843        -0.888396        -0.045490
 H         2.426133         1.752355        -0.669446
 H         2.476096         1.643004         1.184021
 H         2.339936        -0.210590        -1.915937
 H         2.176099        -1.855110        -1.071106
 H         4.928914        -0.615362         2.564153
 H         4.413851         1.087538         2.132940
 H         2.355555        -1.997961         1.096242
