19
Iteration:   763charge 0 multiplicity 1
 C        -0.130740        -0.130390         0.109622
 C         1.366584         0.011737         0.110135
 C         2.284989         1.217478        -0.035661
 C         3.260285        -0.044787         0.159283
 C         2.339157        -0.729006        -0.956255
 O         4.590019        -0.120767         0.670220
 C         4.269460        -0.474669         2.119315
 O         2.893743        -0.236695         2.326812
 C         2.292554        -0.632293         1.138170
 H        -0.605049         0.562594         0.940054
 H        -0.694618         0.096502        -0.814312
 H        -0.428292        -1.140680         0.558662
 H         2.301783         1.667306        -1.121320
 H         2.071583         1.964065         0.743627
 H         2.436817        -0.290363        -1.939170
 H         2.440680        -1.780581        -0.994328
 H         4.209244        -1.627765         2.176101
 H         5.016068         0.026816         2.834389
 H         2.244120        -1.706611         1.141287
