19
Iteration:   945
 C        -0.086353         0.172828         0.122484
 C         1.352364        -0.123949         0.026823
 C         2.322134         1.119334         0.137247
 C         3.199896        -0.118891         0.161910
 C         2.327057        -0.770786        -0.992468
 O         4.532595        -0.105342         0.634438
 C         4.281380        -0.100486         2.022566
 O         2.839598        -0.401308         2.360122
 C         2.357115        -0.937934         1.168529
 H        -0.160055         0.888610         0.965790
 H        -0.431610         0.564323        -0.881435
 H        -0.726867        -0.631759         0.320388
 H         2.422890         1.823037        -0.674945
 H         2.027403         1.613074         1.112839
 H         2.409731        -0.336009        -2.026969
 H         2.385273        -1.968898        -0.942984
 H         4.983946        -0.882813         2.295191
 H         4.520701         0.881416         2.421198
 H         2.482233        -2.074266         0.945577
