19
Iteration:   659charge 0 multiplicity 1
 C        -0.155271         0.142264         0.059473
 C         1.388498        -0.071779         0.071599
 C         2.389215         1.087371         0.122965
 C         3.169151        -0.199113         0.160098
 C         2.340113        -0.765977        -0.927987
 O         4.540651        -0.188049         0.633429
 C         4.262341         0.096884         2.027268
 O         2.929156        -0.486445         2.359834
 C         2.269239        -0.902463         1.149572
 H        -0.448442         0.613921         0.984254
 H        -0.427771         0.803483        -0.842457
 H        -0.727874        -0.756055        -0.244822
 H         2.702405         1.680579        -0.705144
 H         2.393288         1.690895         1.007883
 H         2.207531        -0.155985        -1.918897
 H         2.237851        -1.895372        -0.982677
 H         5.072162        -0.404883         2.701757
 H         4.243419         1.178845         2.271538
 H         2.187729        -1.966979         1.094380
