19
Iteration:   580
 C        -0.159801        -0.053577         0.085510
 C         1.378541        -0.043621         0.072380
 C         2.355749         1.133529         0.081619
 C         3.239048        -0.167214         0.134464
 C         2.329598        -0.734583        -1.057451
 O         4.555164        -0.213452         0.658981
 C         4.290093        -0.196588         2.122495
 O         2.896142        -0.246650         2.386752
 C         2.255693        -0.704559         1.136870
 H        -0.465422         0.507996         0.945263
 H        -0.617002         0.427222        -0.797390
 H        -0.439405        -1.162483         0.332899
 H         2.347585         1.707965        -0.873235
 H         2.344174         1.694315         0.991903
 H         2.400864         0.021749        -2.014265
 H         2.386062        -1.839788        -1.176400
 H         4.816330        -1.098607         2.441664
 H         4.783295         0.720707         2.562663
 H         1.871997        -1.761065         1.157720
