19
Iteration:  1534
 C        -0.102052         0.151851         0.057848
 C         1.401438        -0.065656         0.027065
 C         2.319314         1.106220         0.148058
 C         3.258525        -0.252458         0.132382
 C         2.335678        -0.804431        -0.961403
 O         4.562124        -0.192570         0.598845
 C         4.275979        -0.053706         2.036634
 O         2.832009        -0.336710         2.427349
 C         2.299162        -0.831773         1.167691
 H        -0.560210         0.500910         1.063555
 H        -0.253545         0.848369        -0.826101
 H        -0.777344        -0.711589        -0.128667
 H         2.421958         1.685362        -0.726757
 H         2.314977         1.715063         1.081265
 H         2.356134        -0.314725        -1.946301
 H         2.193867        -1.845452        -1.272410
 H         4.871719        -0.793466         2.536205
 H         4.388095         0.953578         2.368938
 H         2.199221        -1.920486         1.345314
