19
Iteration:  4654charge 0 multiplicity 1
 C        -0.096391        -0.091443        -0.049076
 C         1.365166        -0.051160         0.085513
 C         2.295327         1.143106         0.172806
 C         3.230477        -0.201422         0.098257
 C         2.428143        -0.669457        -1.035416
 O         4.547796        -0.302263         0.671957
 C         4.285129        -0.161110         2.110278
 O         2.820235        -0.149046         2.423836
 C         2.277970        -0.781627         1.148612
 H        -0.560547         0.491972         0.735192
 H        -0.465672         0.425709        -0.935455
 H        -0.448098        -1.170826         0.175531
 H         2.416714         1.870787        -0.677907
 H         2.311867         1.852059         1.081203
 H         2.355580        -0.104298        -2.049036
 H         2.414250        -1.753581        -1.268160
 H         4.771684        -0.976917         2.553622
 H         4.725187         0.850444         2.415376
 H         2.074732        -1.852818         1.281041
