19
Iteration:  1846charge 0 multiplicity 1
 C        -0.157483        -0.021725         0.037785
 C         1.350247         0.003843         0.186478
 C         2.492469         1.131862         0.119316
 C         3.269632        -0.187212         0.074759
 C         2.307109        -0.681404        -0.986587
 O         4.504123        -0.391780         0.657470
 C         4.319010         0.025488         2.047055
 O         2.820540        -0.309304         2.380958
 C         2.246855        -0.781720         1.154777
 H        -0.748779         0.334196         0.847935
 H        -0.369624         0.632614        -0.828360
 H        -0.277285        -1.108899        -0.207866
 H         2.627370         1.742947        -0.771497
 H         2.506067         1.793408         1.036467
 H         2.257150        -0.133898        -1.948698
 H         2.157882        -1.785972        -1.062066
 H         4.954486        -0.581269         2.617143
 H         4.435986         1.053851         2.327517
 H         2.240142        -1.951245         0.988700
