19
Iteration:  4589charge 0 multiplicity 1
 C        -0.179938        -0.007233         0.001739
 C         1.376090        -0.126880         0.028118
 C         2.352201         1.176859        -0.062120
 C         3.212107        -0.078510         0.210745
 C         2.422271        -0.790526        -0.929886
 O         4.513970        -0.054405         0.697260
 C         4.288288        -0.367680         2.112522
 O         2.856428        -0.209553         2.426458
 C         2.272529        -0.787252         1.145415
 H        -0.370583         0.210344         1.028461
 H        -0.585197         0.794592        -0.600357
 H        -0.779489        -0.912547        -0.370008
 H         2.819090         1.656652        -0.987365
 H         2.249961         2.017435         0.760992
 H         2.373397        -0.427458        -2.088164
 H         2.512186        -1.921984        -0.799171
 H         4.727990        -1.360586         2.288604
 H         4.810549         0.436759         2.745174
 H         2.303930        -1.831375         1.181215
