19
Iteration:  3740charge 0 multiplicity 1
 C        -0.135133         0.008107         0.034064
 C         1.332901        -0.147726         0.023353
 C         2.326309         1.054923         0.057660
 C         3.242258        -0.099455         0.098005
 C         2.403704        -0.789193        -1.044109
 O         4.547606        -0.040669         0.741863
 C         4.290283        -0.287575         2.178353
 O         2.850170        -0.220026         2.373556
 C         2.264359        -0.729046         1.173621
 H        -0.465102         0.469699         1.008885
 H        -0.361591         0.555054        -0.861985
 H        -0.527241        -1.002338        -0.029966
 H         2.444709         1.696484        -0.854153
 H         2.073588         1.800767         0.835788
 H         2.577181        -0.321814        -2.049048
 H         2.582942        -1.873392        -1.072979
 H         4.628332        -1.303778         2.234900
 H         4.817347         0.463983         2.750200
 H         2.081913        -1.770426         1.157714
