19
Iteration:   462
 C        -0.099777        -0.045998         0.064038
 C         1.377317        -0.099010         0.089781
 C         2.424475         1.182055         0.171183
 C         3.208658        -0.116519         0.114676
 C         2.296253        -0.752854        -0.969872
 O         4.479915        -0.269704         0.635334
 C         4.227827        -0.110845         2.092191
 O         2.872899        -0.247023         2.323950
 C         2.321032        -0.783300         1.097260
 H        -0.412753         0.654289         0.806573
 H        -0.519938         0.409202        -0.920983
 H        -0.501623        -0.992654         0.520576
 H         2.518261         1.864711        -0.703559
 H         2.479708         1.682304         1.100101
 H         2.476295        -0.217955        -1.905646
 H         2.451749        -1.819750        -1.017873
 H         4.786516        -0.982250         2.608452
 H         4.593294         0.935228         2.310592
 H         2.323653        -1.894599         1.151410
