19
Iteration:  4469charge 0 multiplicity 1
 C        -0.112392         0.041593        -0.084272
 C         1.356665        -0.091279         0.136415
 C         2.383309         1.111507         0.178100
 C         3.245881        -0.168902         0.105492
 C         2.376011        -0.779510        -0.943655
 O         4.549002        -0.200561         0.684641
 C         4.321052        -0.019970         2.033350
 O         2.778686        -0.368990         2.360529
 C         2.256425        -0.801058         1.147945
 H        -0.522053         0.658455         0.716345
 H        -0.380715         0.527997        -0.981256
 H        -0.523627        -1.006829         0.011374
 H         2.360348         1.927338        -0.589597
 H         2.458308         1.769205         1.065368
 H         2.440970        -0.375807        -1.989210
 H         2.527714        -1.827759        -0.920753
 H         4.930382        -0.636549         2.714595
 H         4.374225         1.099385         2.295355
 H         2.080405        -1.883085         1.287485
