19
Iteration:   788charge 0 multiplicity 1
 C        -0.176096         0.010768         0.047926
 C         1.360864        -0.103546         0.079127
 C         2.348639         1.174064        -0.061397
 C         3.224895        -0.114827         0.113877
 C         2.317457        -0.755759        -1.028243
 O         4.460872         0.017852         0.715950
 C         4.362973        -0.396150         2.102351
 O         2.934506        -0.291819         2.476326
 C         2.318158        -0.767747         1.155123
 H        -0.427889         0.726954         0.799499
 H        -0.632720         0.388383        -0.839438
 H        -0.735155        -0.922424         0.466619
 H         2.286152         1.814283        -1.022684
 H         2.495678         1.748181         0.880257
 H         2.212716        -0.245501        -2.018801
 H         2.274273        -1.811676        -1.111799
 H         4.489381        -1.497079         2.246544
 H         5.108502         0.206379         2.651827
 H         2.435411        -1.920713         1.184121
