19
Iteration:  3253
 C        -0.186719        -0.043030         0.070544
 C         1.421792        -0.050845        -0.015711
 C         2.410693         1.227266         0.129292
 C         3.258248        -0.108523         0.209020
 C         2.400129        -0.735586        -1.063062
 O         4.573054        -0.330373         0.742526
 C         4.281347        -0.011869         2.067190
 O         2.803879        -0.352143         2.352820
 C         2.262713        -0.787944         1.074974
 H        -0.595317         0.550894         0.785544
 H        -0.516699         0.054173        -0.912149
 H        -0.449230        -1.088869         0.384521
 H         2.257170         2.040902        -0.682316
 H         2.188969         1.589693         1.183957
 H         2.207593        -0.251175        -2.094940
 H         2.316826        -1.828889        -0.999392
 H         4.935847        -0.512149         2.832030
 H         4.242212         1.021365         2.259812
 H         2.123682        -1.878973         1.261199
