19
Iteration:  1525
 C        -0.100377         0.090784         0.014192
 C         1.326197        -0.090634         0.103365
 C         2.373323         1.083992         0.130694
 C         3.190616        -0.198552         0.160257
 C         2.304646        -0.807973        -0.991793
 O         4.578019        -0.185024         0.572572
 C         4.358966        -0.036593         2.091103
 O         2.786153        -0.343057         2.396863
 C         2.290423        -0.810401         1.164460
 H        -0.334504         0.723860         0.985588
 H        -0.216756         0.926562        -0.742011
 H        -0.689499        -0.738144        -0.316128
 H         2.562038         1.780758        -0.718770
 H         2.400203         1.636641         1.153453
 H         2.437651        -0.269181        -2.001017
 H         2.142474        -1.914630        -0.903276
 H         4.960828        -0.830899         2.503106
 H         4.689795         0.866974         2.545560
 H         2.205505        -1.851926         1.126827
