19
Iteration:   143charge 0 multiplicity 1
 C        -0.107527         0.023087         0.059650
 C         1.382763        -0.050709         0.100649
 C         2.408329         1.085703         0.190807
 C         3.242377        -0.179765         0.134514
 C         2.321783        -0.686751        -1.018426
 O         4.523697        -0.254055         0.663761
 C         4.233450        -0.024500         2.091045
 O         2.820452        -0.288936         2.286592
 C         2.344681        -0.887490         1.144202
 H        -0.493950         0.704538         0.927755
 H        -0.475985         0.415033        -0.845736
 H        -0.566517        -0.998508         0.139188
 H         2.462178         1.700474        -0.710311
 H         2.402653         1.708662         1.146946
 H         2.286905         0.007154        -1.920047
 H         2.266083        -1.739429        -1.205198
 H         4.848079        -0.780063         2.514673
 H         4.525596         0.971239         2.438741
 H         2.242687        -2.005734         1.090800
