19
Iteration:  1537
 C        -0.115085         0.170214         0.054550
 C         1.421346        -0.073208         0.031300
 C         2.320648         1.099101         0.147595
 C         3.270065        -0.259069         0.126249
 C         2.341630        -0.795421        -0.969386
 O         4.547601        -0.199575         0.624733
 C         4.232970        -0.069730         2.024688
 O         2.866497        -0.324181         2.423013
 C         2.312118        -0.850922         1.178282
 H        -0.574260         0.506784         1.064206
 H        -0.407821         0.870661        -0.768034
 H        -0.685200        -0.738067        -0.057563
 H         2.347192         1.709936        -0.831393
 H         2.265887         1.743486         1.102986
 H         2.358445        -0.217393        -1.989166
 H         2.265789        -1.865880        -1.244549
 H         4.867516        -0.763002         2.585152
 H         4.312487         0.998200         2.215068
 H         2.139764        -1.868269         1.254941
