19
Iteration:  4552
 C        -0.073259        -0.111527         0.035635
 C         1.378654        -0.097725         0.045837
 C         2.342701         1.200062         0.086846
 C         3.285503        -0.081382         0.136921
 C         2.360107        -0.766725        -0.981777
 O         4.577428        -0.106977         0.716608
 C         4.221491        -0.391483         2.103153
 O         2.790514        -0.109842         2.324805
 C         2.291327        -0.740729         1.148616
 H        -0.353308         0.588586         0.849714
 H        -0.383937         0.395888        -0.987851
 H        -0.562793        -1.074487         0.155737
 H         2.451308         1.739975        -0.829165
 H         2.203500         1.678575         0.994490
 H         2.176673        -0.402730        -1.949937
 H         2.271136        -1.915134        -0.951086
 H         4.401277        -1.417740         2.455882
 H         4.776135         0.293353         2.711877
 H         2.370410        -1.873929         1.197573
