19
Iteration:  4897charge 0 multiplicity 1
 C        -0.140218        -0.067648        -0.020630
 C         1.382087        -0.033751         0.076854
 C         2.361991         1.189133        -0.026417
 C         3.289441        -0.094132         0.157351
 C         2.384750        -0.796168        -0.944802
 O         4.542146        -0.024146         0.681221
 C         4.208854        -0.401317         2.100611
 O         2.822975        -0.257007         2.398503
 C         2.328467        -0.724384         1.154238
 H        -0.402339         0.758908         0.880835
 H        -0.646996         0.084593        -0.958587
 H        -0.581912        -1.065550         0.423179
 H         2.406148         1.879516        -0.905611
 H         2.280586         1.716352         0.865187
 H         2.557484        -0.324376        -1.903330
 H         2.154586        -1.815157        -0.911821
 H         4.438161        -1.446863         2.378161
 H         4.863568         0.414763         2.777648
 H         2.220474        -1.898407         1.323212
