19
Iteration:  1095
 C        -0.172052         0.142905         0.121541
 C         1.418860        -0.087947         0.146365
 C         2.306816         1.110020         0.070113
 C         3.293929        -0.097155         0.140030
 C         2.404168        -0.850460        -0.944434
 O         4.552629         0.082802         0.630003
 C         4.348501        -0.325501         2.053239
 O         2.764585        -0.405556         2.338212
 C         2.290413        -0.855328         1.099349
 H        -0.277736         0.847388         0.912078
 H        -0.585169         0.725711        -0.705794
 H        -0.845213        -0.693359         0.458979
 H         2.322723         1.678638        -0.860497
 H         2.199068         1.851253         0.912728
 H         2.321015        -0.450005        -1.872553
 H         2.307337        -1.871593        -0.973312
 H         4.931685        -1.248044         2.092348
 H         4.652283         0.493929         2.687947
 H         2.127352        -1.950357         0.834846
