19
Iteration:  1218
 C        -0.137079         0.144048         0.082406
 C         1.328726        -0.121528         0.156210
 C         2.313136         1.070850         0.206655
 C         3.232451        -0.124017         0.098826
 C         2.364950        -0.694788        -1.072992
 O         4.558385        -0.262837         0.694985
 C         4.243079        -0.058190         2.059945
 O         2.892162        -0.364631         2.331822
 C         2.364964        -0.889895         1.110562
 H        -0.484331         0.651119         1.011836
 H        -0.361797         0.875224        -0.729156
 H        -0.679007        -0.717943        -0.150426
 H         2.309706         1.790919        -0.699393
 H         2.110953         1.688679         1.074683
 H         2.288232        -0.146193        -1.967241
 H         2.246695        -1.713792        -1.259548
 H         5.064337        -0.631627         2.549860
 H         4.366080         1.004441         2.305192
 H         2.325805        -2.035447         0.952267
