19
Iteration:  4581
 C        -0.172184        -0.011507        -0.008401
 C         1.306903        -0.076205         0.027206
 C         2.356244         1.105198        -0.038068
 C         3.212148        -0.078567         0.176156
 C         2.489879        -0.787113        -1.019667
 O         4.537460        -0.047869         0.716136
 C         4.238441        -0.388161         2.170182
 O         2.894530        -0.193658         2.408584
 C         2.275461        -0.761006         1.213131
 H        -0.619180         0.256031         1.040092
 H        -0.541353         0.832135        -0.513950
 H        -0.658713        -0.994656        -0.050842
 H         2.385928         1.574327        -1.108781
 H         2.274853         1.984874         0.685332
 H         2.460444        -0.411148        -2.096124
 H         2.285805        -1.822913        -1.001076
 H         4.678128        -1.464762         2.262305
 H         4.848844         0.423326         2.621725
 H         2.406212        -1.879105         1.137895
