19
Iteration:   896charge 0 multiplicity 1
 C        -0.069656        -0.058006         0.126748
 C         1.399992        -0.032358         0.062331
 C         2.444863         1.225782         0.246336
 C         3.253567        -0.160051         0.126880
 C         2.245145        -0.648731        -0.996228
 O         4.500969        -0.369273         0.640111
 C         4.234538         0.031392         2.028522
 O         2.799445        -0.389640         2.335414
 C         2.328785        -0.803047         1.089551
 H        -0.291951         0.295913         1.159267
 H        -0.647327         0.416816        -0.662527
 H        -0.400758        -1.206592         0.006301
 H         2.602355         1.764188        -0.748074
 H         2.728699         1.926518         1.022447
 H         2.329526        -0.186482        -1.985626
 H         2.282432        -1.664532        -1.070113
 H         5.024212        -0.505826         2.631680
 H         4.212687         1.123324         1.970228
 H         2.216486        -1.834293         1.071716
