19
Iteration:  1219
 C        -0.133495         0.151241         0.084161
 C         1.328473        -0.129088         0.147575
 C         2.318487         1.067457         0.212774
 C         3.230547        -0.120548         0.094341
 C         2.361572        -0.697367        -1.065503
 O         4.559051        -0.254065         0.696293
 C         4.243328        -0.058463         2.051093
 O         2.882663        -0.367566         2.333118
 C         2.369149        -0.894141         1.113496
 H        -0.491507         0.685619         1.045858
 H        -0.371162         0.869217        -0.739412
 H        -0.675122        -0.729112        -0.163268
 H         2.337214         1.759262        -0.705577
 H         2.119828         1.683436         1.101309
 H         2.266220        -0.155769        -1.986744
 H         2.265724        -1.724958        -1.259225
 H         5.068149        -0.632893         2.560249
 H         4.391127         1.012703         2.300990
 H         2.323045        -2.006722         0.936341
