19
Iteration:   932
 C        -0.205680         0.161056         0.140277
 C         1.357458        -0.161011         0.068808
 C         2.318509         1.068511         0.146014
 C         3.233344        -0.181024         0.117490
 C         2.382732        -0.719165        -1.074245
 O         4.521725        -0.156642         0.627169
 C         4.271550        -0.065535         2.124542
 O         2.897475        -0.392297         2.355995
 C         2.384449        -0.871467         1.087166
 H        -0.342530         0.883894         0.937822
 H        -0.566455         0.787739        -0.750113
 H        -0.871468        -0.726245         0.446815
 H         2.420001         1.594951        -0.790780
 H         2.420757         1.764434         1.085093
 H         2.273527        -0.156113        -1.958661
 H         2.297275        -1.830160        -1.275747
 H         4.883926        -0.687213         2.846915
 H         4.434684         0.941370         2.466740
 H         2.351600        -1.920402         1.148810
