19
Iteration:   158
 C        -0.227107        -0.039992         0.040431
 C         1.355299        -0.009457         0.036408
 C         2.418190         1.112989         0.172896
 C         3.236524        -0.288285         0.151523
 C         2.337902        -0.590125        -1.035770
 O         4.595331        -0.297954         0.655399
 C         4.253942        -0.017831         2.044620
 O         2.874477        -0.332510         2.448322
 C         2.280103        -0.815538         1.109383
 H        -0.663011         0.244150         0.904395
 H        -0.641204         0.720291        -0.840298
 H        -0.553001        -1.084898         0.147368
 H         2.667584         1.853251        -0.700164
 H         2.479554         1.776096         1.099103
 H         2.646907        -0.173990        -2.033051
 H         2.109029        -1.678044        -1.363984
 H         5.003332        -0.367420         2.796011
 H         4.297028         1.103861         2.068247
 H         2.194546        -1.881602         1.244782
