19
Iteration:  1928
 C        -0.126362         0.128198         0.073787
 C         1.373141        -0.118324         0.076514
 C         2.381051         1.154586         0.064489
 C         3.247567        -0.126385         0.049637
 C         2.199621        -0.858470        -0.998495
 O         4.604596        -0.156514         0.679772
 C         4.269669        -0.144006         2.181781
 O         2.840544        -0.359236         2.390436
 C         2.324525        -0.778022         1.112810
 H        -0.403056         0.815307         0.945058
 H        -0.357247         0.491164        -0.950847
 H        -0.705572        -0.797847         0.169341
 H         2.493662         1.742773        -0.944830
 H         2.695299         1.832355         0.934775
 H         2.252297        -0.453767        -1.998649
 H         2.113933        -1.967901        -0.976773
 H         4.922106        -0.900297         2.750803
 H         4.420636         0.899817         2.427350
 H         2.329160        -1.848501         1.009178
