19
Iteration:  1660charge 0 multiplicity 1
 C        -0.100463         0.069148        -0.055286
 C         1.292595        -0.125456         0.114129
 C         2.356549         1.116262         0.102897
 C         3.187404        -0.158657         0.184356
 C         2.350948        -0.801752        -0.984965
 O         4.526735        -0.100468         0.610042
 C         4.363009        -0.313291         2.079903
 O         2.849191        -0.174772         2.400895
 C         2.313442        -0.762787         1.215627
 H        -0.557197         0.595345         0.759008
 H        -0.407647         0.714258        -0.915042
 H        -0.496617        -1.004226        -0.205664
 H         2.236431         1.707650        -0.921068
 H         2.473114         1.798136         0.962603
 H         2.253268        -0.318795        -1.964915
 H         2.298972        -1.933224        -0.870897
 H         4.714950        -1.338804         2.337940
 H         4.969553         0.359278         2.659970
 H         2.251720        -1.794549         1.318732
