19
Iteration:  1256
 C        -0.095228         0.204001         0.157479
 C         1.422253        -0.045824         0.105563
 C         2.350126         1.078718         0.175842
 C         3.240526        -0.230459         0.074177
 C         2.357660        -0.765900        -1.054540
 O         4.522512        -0.083161         0.653550
 C         4.179674        -0.073407         2.064105
 O         2.900920        -0.470549         2.350012
 C         2.283048        -0.876302         1.087514
 H        -0.583835         0.796403         0.974320
 H        -0.396540         0.549729        -0.840286
 H        -0.525674        -0.886023         0.253337
 H         2.509078         1.605461        -0.716359
 H         2.503301         1.669783         1.092364
 H         2.344946        -0.201086        -2.047535
 H         2.284045        -1.905552        -1.120128
 H         4.801481        -0.738589         2.669949
 H         4.265634         1.010656         2.373195
 H         2.082982        -1.881359         1.193199
