19
Iteration:  4550
 C        -0.074822        -0.115512         0.031798
 C         1.386354        -0.089986         0.034955
 C         2.361772         1.188335         0.105722
 C         3.277066        -0.058907         0.139118
 C         2.353307        -0.769255        -0.980066
 O         4.576611        -0.112862         0.705400
 C         4.214119        -0.383472         2.101239
 O         2.794363        -0.113540         2.317039
 C         2.289521        -0.742356         1.153483
 H        -0.315369         0.634595         0.875330
 H        -0.391775         0.307867        -0.980057
 H        -0.557414        -1.097648         0.127894
 H         2.395507         1.685742        -0.842294
 H         2.218172         1.710607         1.016483
 H         2.195600        -0.424293        -1.957945
 H         2.230558        -1.839484        -0.918001
 H         4.344942        -1.415325         2.512867
 H         4.756871         0.286572         2.758913
 H         2.415727        -1.902910         1.223928
