19
Iteration:  3394charge 0 multiplicity 1
 C        -0.141097        -0.157898         0.036109
 C         1.399218        -0.052935         0.084011
 C         2.367263         1.262701         0.086925
 C         3.253835        -0.133070         0.159294
 C         2.363239        -0.771872        -1.019188
 O         4.571560        -0.126728         0.697318
 C         4.233123        -0.357071         2.117870
 O         2.822895        -0.116374         2.343540
 C         2.324519        -0.750084         1.119056
 H        -0.555121         0.444011         0.866767
 H        -0.514413         0.094844        -0.971389
 H        -0.520770        -1.219859         0.446266
 H         2.519302         1.924016        -0.799743
 H         2.312241         1.930631         0.958506
 H         2.228567        -0.340653        -2.061553
 H         2.445754        -1.852007        -1.094158
 H         4.312118        -1.447557         2.386520
 H         4.754508         0.291564         2.723889
 H         2.023931        -1.744354         1.095521
