19
Iteration:  4399
 C        -0.108500        -0.017485         0.023163
 C         1.441193         0.012111         0.065958
 C         2.431138         1.167223         0.084241
 C         3.218853        -0.159321         0.148419
 C         2.438054        -0.751682        -0.968784
 O         4.515012        -0.301198         0.656982
 C         4.146279         0.035781         2.038201
 O         2.800170        -0.360727         2.386679
 C         2.306447        -0.876715         1.153191
 H        -0.356465         0.089700         1.068775
 H        -0.473078         0.926906        -0.428223
 H        -0.506047        -0.953994        -0.263434
 H         2.423681         1.887767        -0.743703
 H         2.509101         1.830155         0.981823
 H         2.407968        -0.339021        -2.004570
 H         2.438169        -1.936542        -0.880164
 H         4.839566        -0.381230         2.804729
 H         4.010993         1.120358         2.241121
 H         2.096331        -1.925962         1.202719
