19
Iteration:  4618charge 0 multiplicity 1
 C        -0.124289        -0.015970        -0.062594
 C         1.390435        -0.034567         0.170464
 C         2.296340         1.175965         0.058471
 C         3.270382        -0.166589         0.102000
 C         2.363598        -0.811496        -1.020661
 O         4.555767        -0.107711         0.682955
 C         4.249141        -0.289900         2.149696
 O         2.863102        -0.190567         2.409913
 C         2.282531        -0.758507         1.124711
 H        -0.492399         0.129493         0.922065
 H        -0.547775         0.710653        -0.855729
 H        -0.434237        -0.988930        -0.436085
 H         2.415894         1.702448        -0.813592
 H         2.424272         1.657958         0.955381
 H         2.270157        -0.564840        -1.986283
 H         2.174715        -1.866809        -0.821510
 H         4.762406        -1.177872         2.548001
 H         4.585763         0.554353         2.721656
 H         2.317279        -1.904994         1.229819
