19
Iteration:  4817
 C        -0.103505        -0.138156         0.003968
 C         1.382245         0.025142         0.081175
 C         2.370183         1.204211         0.142427
 C         3.224661        -0.126906         0.161228
 C         2.387059        -0.733878        -0.978461
 O         4.483974        -0.291141         0.686617
 C         4.270893        -0.119063         2.076167
 O         2.827628        -0.280901         2.343219
 C         2.283797        -0.724282         1.109006
 H        -0.661676         0.389119         0.833913
 H        -0.352313         0.650855        -0.868905
 H        -0.395398        -1.251544        -0.218176
 H         2.501416         1.803659        -0.716789
 H         2.569335         1.836643         1.074301
 H         2.351363        -0.422907        -2.055457
 H         2.441181        -1.849534        -0.993356
 H         4.852372        -1.008808         2.649731
 H         4.546562         0.905571         2.556797
 H         2.286885        -1.889446         1.327270
