19
Iteration:   747charge 0 multiplicity 1
 C        -0.116157        -0.196532         0.136973
 C         1.377855        -0.021795         0.053069
 C         2.358542         1.283794         0.100738
 C         3.252745        -0.012504         0.106662
 C         2.397118        -0.722356        -0.878003
 O         4.532061        -0.182536         0.622906
 C         4.197640        -0.518827         2.026820
 O         2.842990        -0.080606         2.330517
 C         2.316646        -0.695050         1.120485
 H        -0.557720         0.436434         0.858674
 H        -0.625529         0.111504        -0.815267
 H        -0.317811        -1.209513         0.349576
 H         2.397273         1.826501        -0.765970
 H         2.475277         1.867373         1.013259
 H         2.333234        -0.417577        -1.959159
 H         2.293909        -1.892457        -0.758160
 H         4.538780        -1.500279         2.199134
 H         4.739412         0.075775         2.701213
 H         2.224520        -1.816069         1.130144
