19
Iteration:   412
 C        -0.102894         0.065097         0.136429
 C         1.429997        -0.052604         0.113179
 C         2.396103         1.091322         0.128221
 C         3.302957        -0.230761         0.082479
 C         2.319335        -0.718360        -1.028499
 O         4.475194        -0.348390         0.727973
 C         4.162264         0.154084         2.018630
 O         2.855656        -0.433490         2.359616
 C         2.372601        -0.792673         1.080196
 H        -0.490023         0.571624         1.123752
 H        -0.340433         0.725918        -0.677766
 H        -0.650322        -0.817655         0.062318
 H         2.530301         1.826567        -0.749736
 H         2.321729         1.549676         1.149143
 H         2.243944        -0.211492        -1.996160
 H         2.045298        -1.873778        -1.044624
 H         4.884312        -0.127424         2.687201
 H         4.105302         1.215841         1.889187
 H         2.409180        -1.902425         1.002369
