19
Iteration:   844
 C        -0.149200         0.002647         0.029409
 C         1.361950        -0.129578         0.081997
 C         2.281944         1.126391         0.129084
 C         3.220369        -0.140205         0.180697
 C         2.317506        -0.613568        -1.006586
 O         4.516663        -0.285767         0.616202
 C         4.316288        -0.160650         2.076239
 O         2.924546        -0.242409         2.388500
 C         2.339384        -0.808150         1.178310
 H        -0.633564         0.393964         0.879224
 H        -0.412386         0.670469        -0.814267
 H        -0.584712        -0.988264        -0.277992
 H         2.506533         1.789184        -0.720118
 H         2.297356         1.692694         1.116659
 H         2.244835        -0.031096        -1.913986
 H         2.181969        -1.702309        -1.217855
 H         4.866324        -0.907966         2.730837
 H         4.720473         0.821540         2.251288
 H         2.410027        -1.957987         1.077013
