19
Iteration:   786charge 0 multiplicity 1
 C        -0.175876         0.001652         0.058821
 C         1.356013        -0.098919         0.077191
 C         2.334223         1.182183        -0.075629
 C         3.229282        -0.109262         0.107967
 C         2.331203        -0.749906        -1.038555
 O         4.463239         0.007768         0.727164
 C         4.365009        -0.420503         2.100383
 O         2.930297        -0.283833         2.488835
 C         2.322588        -0.765428         1.150041
 H        -0.463823         0.755075         0.874762
 H        -0.603667         0.336015        -0.894146
 H        -0.744425        -0.962703         0.473361
 H         2.268627         1.856864        -1.063709
 H         2.553802         1.732905         0.846701
 H         2.180765        -0.260023        -2.014374
 H         2.234520        -1.769789        -1.128296
 H         4.500433        -1.557172         2.237281
 H         5.099620         0.296750         2.633192
 H         2.443577        -1.824607         1.234961
