19
Iteration:  2587charge 0 multiplicity 1
 C        -0.149832         0.009816         0.043333
 C         1.329388        -0.070573         0.045802
 C         2.306308         1.161294         0.098798
 C         3.230608        -0.154822         0.154873
 C         2.381824        -0.735603        -1.023710
 O         4.606843        -0.258304         0.727956
 C         4.274012        -0.188659         2.160017
 O         2.830631        -0.219753         2.322051
 C         2.328798        -0.778533         1.115959
 H        -0.419369         0.614519         0.892709
 H        -0.548577         0.352482        -0.926944
 H        -0.280749        -1.062693         0.336324
 H         2.198634         1.790510        -0.740553
 H         2.037363         1.666325         1.007109
 H         2.403860        -0.101100        -1.913638
 H         2.429736        -1.803709        -1.379426
 H         4.931487        -0.926652         2.626435
 H         4.614704         0.772471         2.280502
 H         2.135743        -1.912732         1.091858
