19
Iteration:  4862charge 0 multiplicity 1
 C        -0.192025         0.019305        -0.012504
 C         1.375083        -0.134944         0.107830
 C         2.343876         1.104244         0.083617
 C         3.260311        -0.171414         0.113596
 C         2.379828        -0.750906        -1.016644
 O         4.544580        -0.064037         0.732435
 C         4.247406        -0.274952         2.158466
 O         2.838245        -0.199453         2.331479
 C         2.378296        -0.795865         1.138193
 H        -0.513379         0.983071         0.564118
 H        -0.552458         0.232680        -1.070851
 H        -0.722447        -0.862214         0.516539
 H         2.341052         1.737119        -0.802725
 H         2.245953         1.652877         1.013337
 H         2.470425        -0.281202        -2.046154
 H         2.282803        -1.775512        -1.223660
 H         4.659067        -1.342017         2.408649
 H         4.801001         0.569752         2.753797
 H         2.265954        -1.982363         1.208905
