19
Iteration:  3907charge 0 multiplicity 1
 C        -0.106158        -0.036919         0.074943
 C         1.432084        -0.053790         0.031866
 C         2.384164         1.077603         0.164754
 C         3.258903        -0.133844         0.114237
 C         2.444925        -0.669593        -1.025712
 O         4.534249        -0.347922         0.711107
 C         4.212786         0.100184         2.029218
 O         2.766293        -0.388225         2.387371
 C         2.250594        -0.802219         1.114432
 H        -0.373270         0.256118         1.088042
 H        -0.413957         0.685522        -0.715449
 H        -0.567166        -0.944613        -0.138201
 H         2.355239         1.686935        -0.787857
 H         2.451801         1.848484         0.950314
 H         2.448584        -0.053431        -1.898656
 H         2.210005        -1.809784        -0.924595
 H         4.974916        -0.346555         2.739277
 H         4.305867         1.250894         2.079106
 H         2.184904        -1.929366         1.201355
