19
Iteration:   170
 C        -0.199060        -0.082665         0.036338
 C         1.336922         0.030901         0.048260
 C         2.435523         1.167517         0.174136
 C         3.239929        -0.202367         0.141556
 C         2.357400        -0.663130        -1.110636
 O         4.586218        -0.401269         0.654015
 C         4.274412         0.098249         2.052940
 O         2.909357        -0.420042         2.458059
 C         2.218205        -0.746933         1.192377
 H        -0.531275         0.235181         0.979478
 H        -0.736568         0.598903        -0.790752
 H        -0.509162        -1.033822        -0.385241
 H         2.544093         1.846917        -0.734214
 H         2.389733         1.625054         1.148986
 H         2.403849         0.046993        -1.920719
 H         2.247814        -1.785893        -1.285320
 H         5.072317        -0.394570         2.713860
 H         4.244005         1.206438         2.065209
 H         1.905936        -1.780902         1.214059
