19
Iteration:  2387charge 0 multiplicity 1
 C        -0.156443        -0.037054         0.001754
 C         1.348321        -0.029271         0.070515
 C         2.338336         1.154971         0.188801
 C         3.226671        -0.207076         0.113988
 C         2.333885        -0.797162        -0.998681
 O         4.554950        -0.190067         0.682056
 C         4.327447        -0.201858         2.147655
 O         2.871312        -0.129663         2.348068
 C         2.304134        -0.819902         1.093901
 H        -0.439744         0.822162         0.723036
 H        -0.570117         0.249730        -1.031908
 H        -0.601846        -1.059405         0.178281
 H         2.452050         1.833874        -0.657025
 H         2.404600         1.833783         1.007764
 H         2.362559        -0.318423        -2.039848
 H         2.159107        -1.891227        -1.072169
 H         4.793676        -1.196595         2.475139
 H         4.771215         0.693487         2.578385
 H         2.096150        -1.943008         1.155943
