19
Iteration:  4606
 C        -0.083385        -0.020512        -0.010977
 C         1.360534        -0.031994         0.042587
 C         2.344136         1.130702         0.025287
 C         3.234380        -0.103246         0.119079
 C         2.379012        -0.871858        -0.923988
 O         4.540008        -0.082763         0.701812
 C         4.264516        -0.284896         2.114876
 O         2.820421        -0.274526         2.378942
 C         2.326510        -0.656370         1.192855
 H        -0.684913         0.141478         0.899577
 H        -0.385826         0.889284        -0.642925
 H        -0.445111        -0.953213        -0.370876
 H         2.109412         1.721762        -0.818255
 H         2.316214         1.738669         0.858252
 H         2.483374        -0.471404        -1.830322
 H         2.269210        -1.951158        -0.952336
 H         4.597228        -1.341673         2.313202
 H         4.803322         0.481389         2.617194
 H         2.178222        -1.816376         1.134084
