19
Iteration:  1961charge 0 multiplicity 1
 C        -0.132643         0.032136         0.081262
 C         1.401155        -0.034235         0.103012
 C         2.343368         1.079041         0.066056
 C         3.209999        -0.207316         0.134040
 C         2.342823        -0.763203        -0.977616
 O         4.588661        -0.134877         0.629547
 C         4.255154        -0.276385         2.132814
 O         2.852855        -0.188808         2.352122
 C         2.281432        -0.760747         1.132042
 H        -0.715129         0.443202         0.974309
 H        -0.578729         0.698057        -0.704063
 H        -0.569507        -0.957629        -0.038403
 H         2.502532         1.481470        -1.028740
 H         2.579550         1.782528         0.901419
 H         2.566441        -0.242695        -1.894437
 H         2.051725        -1.839488        -1.054037
 H         4.804821        -1.099627         2.493757
 H         4.652900         0.592902         2.642181
 H         2.141948        -1.850727         1.155115
