19
Iteration:  3337charge 0 multiplicity 1
 C        -0.121164        -0.051248        -0.055740
 C         1.331212        -0.101302         0.088742
 C         2.293294         1.095851         0.056111
 C         3.175373        -0.129113         0.183272
 C         2.438777        -0.729794        -1.006379
 O         4.554549        -0.147472         0.693944
 C         4.288822        -0.282935         2.106371
 O         2.859526        -0.173732         2.414427
 C         2.313238        -0.706897         1.169511
 H        -0.648689         0.161553         0.988635
 H        -0.626665         0.765783        -0.668808
 H        -0.599151        -0.994377        -0.459203
 H         2.329080         1.576653        -0.914221
 H         2.394554         1.684750         0.979213
 H         2.431849        -0.235423        -1.993209
 H         2.492946        -1.814873        -0.999421
 H         4.740167        -1.233913         2.411188
 H         4.933309         0.539696         2.551329
 H         2.207071        -1.782365         1.086180
