19
Iteration:  4919charge 0 multiplicity 1
 C        -0.170081        -0.110383         0.012794
 C         1.358526        -0.078211         0.073251
 C         2.306788         1.187939        -0.015243
 C         3.228153        -0.066548         0.160750
 C         2.379889        -0.704245        -1.060174
 O         4.513986        -0.177483         0.757223
 C         4.330909        -0.399047         2.167322
 O         2.903978        -0.177927         2.382162
 C         2.296069        -0.656828         1.119015
 H        -0.683134         0.508828         0.938939
 H        -0.459946         0.308135        -0.932235
 H        -0.496263        -1.216996        -0.091818
 H         2.507145         1.602631        -1.014449
 H         2.047479         1.929126         0.657181
 H         2.372219        -0.256715        -2.034119
 H         2.573444        -1.658372        -0.881965
 H         4.473414        -1.454566         2.466377
 H         5.013139         0.256191         2.950300
 H         2.117744        -1.738636         1.434191
