19
Iteration:  1809
 C        -0.196479         0.161830         0.032229
 C         1.387780        -0.043287         0.041269
 C         2.281329         1.096386         0.071226
 C         3.230967        -0.194382         0.182832
 C         2.416155        -0.778275        -0.943283
 O         4.516078        -0.248197         0.679467
 C         4.360975        -0.087215         2.125359
 O         2.907521        -0.334928         2.338160
 C         2.251340        -0.799428         1.114666
 H        -0.609575         0.451233         1.054233
 H        -0.655796         0.705061        -0.804977
 H        -0.702007        -0.753760        -0.263357
 H         2.461059         1.768875        -0.769663
 H         2.239315         1.738546         0.900136
 H         2.375711        -0.473113        -1.979296
 H         2.232004        -1.849148        -0.976216
 H         5.082007        -0.966611         2.537602
 H         4.697913         0.948202         2.381711
 H         2.233542        -1.855139         1.359939
