19
Iteration:  1491charge 0 multiplicity 1
 C        -0.113022        -0.043309        -0.050777
 C         1.356833         0.000951         0.126882
 C         2.270279         1.158492         0.069594
 C         3.218935        -0.197385         0.167973
 C         2.289087        -0.707383        -0.957352
 O         4.600764        -0.254601         0.547732
 C         4.316576        -0.231042         2.186018
 O         2.895631        -0.229551         2.419182
 C         2.325315        -0.718640         1.173528
 H        -0.698104         0.473691         0.856745
 H        -0.334277         0.632235        -0.930363
 H        -0.655252        -1.006288        -0.075252
 H         2.394169         1.761989        -0.823103
 H         2.229573         1.781590         1.034422
 H         2.527501        -0.242318        -1.974774
 H         1.996829        -1.813376        -1.078822
 H         4.633325        -1.236725         2.443496
 H         4.771853         0.652845         2.562964
 H         2.144090        -1.741052         1.138653
