19
Iteration:   101
 C        -0.228506         0.098518         0.072637
 C         1.302791        -0.114757         0.040192
 C         2.344090         1.120186         0.004240
 C         3.216649        -0.100646         0.189678
 C         2.404713        -0.785377        -0.967614
 O         4.553831        -0.038502         0.635703
 C         4.343802        -0.331079         2.177111
 O         2.903142        -0.279316         2.327079
 C         2.292818        -0.808106         1.158410
 H        -0.396525         0.767707         0.820973
 H        -0.820539         0.365366        -0.863900
 H        -0.651535        -0.906892         0.270110
 H         2.526186         1.603785        -0.973263
 H         2.230033         1.779287         0.957854
 H         2.433024        -0.180526        -1.942791
 H         2.463994        -1.872142        -1.027700
 H         4.730653        -1.291759         2.386484
 H         4.689821         0.443285         2.885056
 H         2.283154        -1.905828         1.197780
