19
Iteration:  4242charge 0 multiplicity 1
 C        -0.170353        -0.044101         0.055118
 C         1.345773        -0.069416         0.025666
 C         2.348393         1.103954         0.132971
 C         3.242230        -0.114314         0.107947
 C         2.485625        -0.799635        -1.010767
 O         4.560903        -0.188495         0.687347
 C         4.269878        -0.241683         2.104709
 O         2.766176        -0.128237         2.361411
 C         2.298299        -0.715350         1.171010
 H        -0.728454         0.167964         0.976908
 H        -0.647826         0.466912        -0.660172
 H        -0.522960        -0.984455        -0.282252
 H         2.520460         1.770962        -0.689770
 H         2.331774         1.654294         1.016960
 H         2.626331        -0.495447        -2.095098
 H         2.583626        -1.850433        -1.124230
 H         4.642622        -1.224886         2.477436
 H         4.749391         0.593425         2.614574
 H         2.285353        -1.798470         1.160157
