19
Iteration:  3780
 C        -0.076061        -0.152518        -0.027769
 C         1.425531        -0.044847         0.164109
 C         2.352392         1.203332         0.078824
 C         3.254329        -0.057205         0.187800
 C         2.330621        -0.730235        -1.003975
 O         4.543042        -0.255142         0.688221
 C         4.276262        -0.234928         2.125032
 O         2.803733        -0.222710         2.340254
 C         2.305188        -0.675259         1.090815
 H        -0.712234         0.538959         0.415987
 H        -0.414171        -0.080786        -1.074212
 H        -0.419753        -1.190229         0.314100
 H         2.416746         1.826056        -0.812839
 H         2.272260         1.732888         1.029659
 H         2.277633        -0.090741        -1.899671
 H         2.271051        -1.799395        -1.055225
 H         4.539142        -1.270968         2.553960
 H         4.607100         0.738016         2.623154
 H         2.112934        -1.797184         1.285741
