19
Iteration:  1788charge 0 multiplicity 1
 C        -0.177206         0.104393         0.039166
 C         1.283460        -0.085669         0.147253
 C         2.390139         1.141155         0.087557
 C         3.242243        -0.159024         0.077075
 C         2.349158        -0.821519        -0.992964
 O         4.588563        -0.197490         0.586823
 C         4.234428        -0.144098         2.167847
 O         2.832496        -0.291143         2.381477
 C         2.350933        -0.802199         1.189653
 H        -0.545292         0.695271         0.913908
 H        -0.214434         0.683509        -0.899813
 H        -0.920760        -0.675268        -0.092109
 H         2.507811         1.767460        -0.809817
 H         2.388651         1.764870         0.914194
 H         2.439481        -0.370850        -1.976691
 H         2.497811        -1.888194        -1.190795
 H         4.774147        -1.116349         2.404290
 H         4.625570         0.757120         2.587699
 H         2.543506        -1.942529         1.284409
