19
Iteration:  3219
 C        -0.070177        -0.012571         0.043590
 C         1.359089        -0.042248         0.068274
 C         2.428735         1.117136         0.127202
 C         3.272712        -0.230009         0.152768
 C         2.351399        -0.643111        -1.007454
 O         4.575841        -0.253996         0.694227
 C         4.212998         0.016306         2.081986
 O         2.788364        -0.311335         2.363040
 C         2.298515        -0.889302         1.183138
 H        -0.734932         0.516290         0.636005
 H        -0.520336         0.299970        -0.887378
 H        -0.355606        -1.089828         0.111154
 H         2.388612         1.725574        -0.863996
 H         2.247656         1.604504         1.149271
 H         2.294933        -0.058059        -2.040299
 H         2.180542        -1.674552        -1.437654
 H         4.943536        -0.502239         2.745998
 H         4.315542         1.087206         2.136033
 H         2.092729        -2.007336         0.961396
