19
Iteration:  1293charge 0 multiplicity 1
 C        -0.135599        -0.048218         0.095463
 C         1.310684         0.078657         0.075742
 C         2.290960         1.255952         0.120614
 C         3.301299        -0.143724         0.149641
 C         2.312092        -0.630152        -1.064317
 O         4.594899        -0.446122         0.668606
 C         4.243260        -0.099356         2.044711
 O         2.864850        -0.396259         2.424439
 C         2.365190        -0.723021         1.134466
 H        -0.583193         0.477581         0.895348
 H        -0.597835         0.274581        -0.860738
 H        -0.348219        -1.087960         0.176584
 H         2.280857         1.853312        -0.868047
 H         2.256243         1.867433         1.020037
 H         2.302107        -0.199155        -2.052688
 H         2.401250        -1.766447        -1.146341
 H         4.928110        -0.664718         2.693714
 H         4.517285         0.931113         2.132645
 H         2.150193        -1.842361         1.062481
