19
Iteration:  1751charge 0 multiplicity 1
 C        -0.189541        -0.041110         0.113644
 C         1.399107        -0.064105         0.091623
 C         2.425260         1.193893         0.078418
 C         3.216697        -0.203876         0.139562
 C         2.337464        -0.746337        -1.051345
 O         4.554557        -0.191841         0.717765
 C         4.276769        -0.286494         2.089187
 O         2.834255        -0.146700         2.286064
 C         2.307060        -0.738823         1.136458
 H        -0.695320         0.678422         0.808172
 H        -0.514054         0.283869        -0.875292
 H        -0.525097        -1.053433         0.337298
 H         2.631115         1.772285        -0.809293
 H         2.570517         1.625480         1.125709
 H         2.270295        -0.225881        -2.020829
 H         2.199167        -1.812089        -1.010333
 H         4.547483        -1.294211         2.507647
 H         4.753114         0.510916         2.783858
 H         2.183567        -1.764168         1.130957
