19
Iteration:  3384
 C        -0.132777        -0.173374         0.045596
 C         1.388065        -0.029797         0.058746
 C         2.407430         1.214700         0.089647
 C         3.282804        -0.083968         0.074132
 C         2.341393        -0.777726        -0.965518
 O         4.532425        -0.150207         0.739683
 C         4.238592        -0.380886         2.112796
 O         2.794584        -0.112292         2.322352
 C         2.347376        -0.670599         1.137929
 H        -0.635668         0.416283         0.784590
 H        -0.664038         0.144597        -0.860450
 H        -0.432351        -1.356707         0.094295
 H         2.303309         1.902382        -0.774656
 H         2.315181         1.594730         1.100439
 H         2.438543        -0.230982        -1.957491
 H         2.140315        -1.857085        -1.009161
 H         4.619669        -1.407491         2.248499
 H         4.830004         0.233728         2.661338
 H         2.294430        -1.748959         1.293475
