19
Iteration:   993
 C        -0.222957        -0.097586        -0.019068
 C         1.334388        -0.021076         0.070181
 C         2.365337         1.180751         0.128389
 C         3.196277        -0.120838         0.160551
 C         2.257072        -0.613524        -0.948524
 O         4.551523        -0.234906         0.639256
 C         4.412086        -0.316289         2.085301
 O         2.884083        -0.230449         2.384231
 C         2.384897        -0.725511         1.182538
 H        -0.692348         0.210637         0.902761
 H        -0.633346         0.267665        -0.906081
 H        -0.521358        -1.172186        -0.050019
 H         2.296831         1.627261        -0.889649
 H         2.429251         1.868342         0.918086
 H         2.338870         0.119805        -1.839069
 H         2.094912        -1.695266        -1.147806
 H         4.776750        -1.245407         2.508847
 H         5.024732         0.586299         2.370795
 H         2.108489        -1.891812         1.061331
