19
Iteration:  1301
 C        -0.105429        -0.102503         0.037300
 C         1.387043         0.107304         0.129284
 C         2.320125         1.237643         0.156989
 C         3.238119        -0.168382         0.097524
 C         2.338008        -0.623512        -0.990601
 O         4.533185        -0.459530         0.639316
 C         4.283104        -0.088859         2.091243
 O         2.901364        -0.342077         2.348378
 C         2.265948        -0.706918         1.127947
 H        -0.515183         0.341684         0.945997
 H        -0.586979         0.330809        -0.882912
 H        -0.371262        -1.240216         0.273883
 H         2.263652         1.866618        -0.699498
 H         2.273875         1.660270         1.121964
 H         2.385767        -0.095660        -1.978578
 H         2.422849        -1.787250        -1.185103
 H         4.930772        -0.788265         2.621522
 H         4.443571         1.022039         2.345973
 H         1.994653        -1.692446         1.049473
