19
Iteration:  1317
 C        -0.097694        -0.136765         0.029114
 C         1.329969         0.002569         0.072590
 C         2.470428         1.217101         0.265491
 C         3.213354        -0.144391         0.215043
 C         2.330027        -0.627018        -1.024350
 O         4.459571        -0.357960         0.627763
 C         4.296048        -0.149000         1.982338
 O         2.864298        -0.232738         2.331899
 C         2.267108        -0.760959         1.172048
 H        -0.689241         0.279246         0.865128
 H        -0.427314         0.284601        -0.909986
 H        -0.300375        -1.135086        -0.093298
 H         2.656933         1.873999        -0.660685
 H         2.577546         1.768600         1.257997
 H         2.395099        -0.141922        -2.003936
 H         2.046154        -1.654847        -1.134271
 H         4.893194        -0.851154         2.599471
 H         4.739041         0.803559         2.157415
 H         2.126598        -1.939667         1.234033
