19
Iteration:  1679charge 0 multiplicity 1
 C        -0.220578        -0.045929        -0.042159
 C         1.355539        -0.005940         0.075925
 C         2.383265         1.113683         0.063359
 C         3.285561        -0.176467         0.115540
 C         2.313118        -0.793229        -0.891101
 O         4.637733        -0.049758         0.607817
 C         4.175316        -0.371155         2.079511
 O         2.924388        -0.160905         2.412772
 C         2.284425        -0.739312         1.216628
 H        -0.718902         0.525982         0.820409
 H        -0.356095         0.662351        -0.887808
 H        -0.669312        -1.042087        -0.062454
 H         2.580768         1.640011        -0.882258
 H         2.386625         1.626918         0.963174
 H         2.304415        -0.179764        -1.837387
 H         2.132820        -1.883548        -0.958110
 H         4.376719        -1.439359         2.088531
 H         4.762081         0.219479         2.683572
 H         2.208269        -1.871708         1.544024
