19
Iteration:  4192charge 0 multiplicity 1
 C        -0.101139        -0.033966         0.031371
 C         1.412849         0.007181         0.081310
 C         2.437372         1.167056         0.125400
 C         3.297595        -0.244319         0.092384
 C         2.364154        -0.757968        -0.978785
 O         4.528311        -0.264167         0.732149
 C         4.205357         0.063694         2.062418
 O         2.755139        -0.349184         2.389323
 C         2.328672        -0.862494         1.082097
 H        -0.472285         0.391828         1.018476
 H        -0.669220         0.650482        -0.758712
 H        -0.668988        -0.974612        -0.110807
 H         2.352326         1.894913        -0.730725
 H         2.465833         1.796471         1.080587
 H         2.519742        -0.301233        -1.957636
 H         2.092070        -1.830858        -1.136283
 H         4.937821        -0.438473         2.718885
 H         4.244883         1.184909         2.217498
 H         2.240971        -1.983520         0.976934
