19
Iteration:  2657
 C        -0.259286         0.008361        -0.008784
 C         1.434183        -0.126666         0.041744
 C         2.403880         1.153663         0.040244
 C         3.256704        -0.039104         0.155143
 C         2.334749        -0.776503        -0.999310
 O         4.542672        -0.241899         0.696676
 C         4.268878        -0.143635         2.163080
 O         2.865591        -0.277679         2.409805
 C         2.273324        -0.798543         1.163470
 H        -0.704836         0.326536         1.027964
 H        -0.518338         0.736923        -0.809267
 H        -0.596584        -1.022807        -0.288610
 H         2.480934         1.703008        -0.933071
 H         2.407403         1.741188         0.963660
 H         2.285078        -0.092453        -1.868999
 H         2.494437        -1.782220        -1.234983
 H         4.920968        -0.937439         2.487299
 H         4.656819         0.823352         2.468305
 H         2.405691        -1.860522         1.036159
