19
Iteration:  2911charge 0 multiplicity 1
 C        -0.091550         0.016567         0.009845
 C         1.397818        -0.125517         0.118757
 C         2.288656         1.214525         0.193200
 C         3.249109        -0.140514         0.166017
 C         2.416915        -0.773529        -1.026032
 O         4.505697        -0.169763         0.679134
 C         4.238676        -0.149737         2.123202
 O         2.835939        -0.267306         2.321803
 C         2.284310        -0.883484         1.104269
 H        -0.155935         0.898367         0.643635
 H        -0.290648         0.470958        -1.046583
 H        -0.506308        -0.930821         0.331262
 H         2.315300         1.602891        -0.875788
 H         2.115751         2.079555         0.962069
 H         2.572957        -0.371387        -2.006303
 H         2.194543        -1.878519        -1.159004
 H         4.725655        -0.996020         2.636395
 H         4.583121         0.849981         2.505902
 H         2.482716        -1.977996         0.939369
