19
Iteration:  4771
 C        -0.120550         0.012222         0.017753
 C         1.397712        -0.118895         0.081897
 C         2.396866         1.117268         0.169536
 C         3.178615        -0.166013         0.129606
 C         2.364559        -0.685713        -1.066262
 O         4.516658        -0.325308         0.717407
 C         4.276070         0.055902         2.116749
 O         2.893158        -0.293510         2.358491
 C         2.252662        -0.866262         1.105314
 H        -0.600688         0.184607         0.945658
 H        -0.476058         0.946170        -0.692364
 H        -0.460699        -0.925679        -0.519615
 H         2.463404         1.736437        -0.746266
 H         2.185811         1.810028         1.021811
 H         2.476610        -0.113423        -1.969113
 H         2.304253        -1.851814        -1.257783
 H         4.966029        -0.502330         2.988609
 H         4.300519         1.116722         2.326893
 H         2.248534        -2.035157         1.247923
