19
Iteration:  3730
 C        -0.090486        -0.010820         0.019632
 C         1.411690        -0.123496         0.072275
 C         2.270148         1.120535         0.014487
 C         3.243378        -0.142173         0.145422
 C         2.404301        -0.795766        -1.028639
 O         4.566556         0.001749         0.759504
 C         4.288368        -0.330203         2.092345
 O         2.792816        -0.200581         2.381819
 C         2.301771        -0.799802         1.146305
 H        -0.531606         0.546074         0.948812
 H        -0.418397         0.805789        -0.747052
 H        -0.738230        -0.850627        -0.228493
 H         2.187363         1.555224        -1.000949
 H         2.453982         1.711099         0.929375
 H         2.164862        -0.337673        -2.025177
 H         2.432334        -1.909133        -0.943163
 H         4.639951        -1.307640         2.457949
 H         4.647591         0.450868         2.744220
 H         2.378747        -1.838314         1.277112
