19
Iteration:  2155charge 0 multiplicity 1
 C        -0.172047        -0.046508         0.053460
 C         1.391368        -0.013041         0.066216
 C         2.318142         1.212676         0.081210
 C         3.244396        -0.209307         0.109984
 C         2.342310        -0.685421        -1.045254
 O         4.599111        -0.438440         0.728049
 C         4.275030        -0.047784         2.078374
 O         2.903024        -0.262531         2.378774
 C         2.243123        -0.747280         1.191153
 H        -0.426592         0.399111         1.104163
 H        -0.637029         0.654689        -0.641747
 H        -0.636335        -1.008818        -0.192167
 H         2.492742         1.742954        -0.770775
 H         2.287501         1.852848         0.930614
 H         2.251984        -0.072771        -1.927672
 H         2.227655        -1.733528        -1.398615
 H         4.891394        -0.698361         2.818139
 H         4.409126         1.010534         2.064044
 H         2.316507        -1.845330         1.100672
