19
Iteration:  1181
 C        -0.133882        -0.170311         0.023907
 C         1.386402         0.113037         0.055028
 C         2.430486         1.235370         0.183971
 C         3.194520        -0.081383         0.198186
 C         2.291165        -0.583919        -1.011094
 O         4.525720        -0.424138         0.634380
 C         4.322744        -0.132571         1.953287
 O         2.884753        -0.358091         2.421030
 C         2.251380        -0.716286         1.163566
 H        -0.514568         0.002126         0.960272
 H        -0.700903         0.366549        -0.687071
 H        -0.309522        -1.280522        -0.223646
 H         2.602195         1.805628        -0.688674
 H         2.190995         1.702257         1.162725
 H         2.453609        -0.089877        -2.035770
 H         2.157024        -1.726604        -1.099342
 H         4.931069        -0.676283         2.627255
 H         4.425517         0.921778         2.246366
 H         2.199048        -1.824258         1.262759
