19
Iteration:  3238
 C        -0.098860        -0.121103         0.036150
 C         1.357931        -0.054988         0.120369
 C         2.440630         1.190399         0.202562
 C         3.236089        -0.132983         0.051625
 C         2.371386        -0.676587        -1.027032
 O         4.543955        -0.357440         0.715443
 C         4.172993         0.042102         2.106016
 O         2.810084        -0.340152         2.335821
 C         2.292794        -0.785480         1.104512
 H        -0.433935         0.766225         0.741017
 H        -0.565654         0.244875        -0.948140
 H        -0.562697        -1.065053         0.342307
 H         2.533480         1.809435        -0.684288
 H         2.594059         1.837886         1.072153
 H         2.582948        -0.282293        -2.011560
 H         2.381045        -1.791434        -1.096880
 H         4.814868        -0.509603         2.764993
 H         4.354634         1.143026         2.155397
 H         2.272229        -1.881794         0.929783
