19
Iteration:   862
 C        -0.150357        -0.112589         0.024265
 C         1.330057         0.058103         0.122504
 C         2.331734         1.218966         0.203591
 C         3.238396        -0.232009         0.152168
 C         2.317844        -0.629769        -1.058093
 O         4.585595        -0.396498         0.661550
 C         4.365273        -0.056561         2.011885
 O         2.859168        -0.301161         2.357413
 C         2.266368        -0.767817         1.142041
 H        -0.625566         0.152880         1.050830
 H        -0.708126         0.611787        -0.554664
 H        -0.414123        -1.253481        -0.188986
 H         2.289200         1.678249        -0.860956
 H         2.421565         1.911544         1.037581
 H         2.527204         0.021579        -1.946452
 H         2.325408        -1.641619        -1.312786
 H         5.089981        -0.648590         2.619078
 H         4.504744         0.962833         2.488113
 H         1.998203        -1.725033         1.396202
