19
Iteration:  4294
 C        -0.218603        -0.125797        -0.099807
 C         1.311630        -0.082556         0.090062
 C         2.348591         1.203974        -0.061865
 C         3.259319        -0.099049         0.114930
 C         2.331383        -0.794464        -0.973334
 O         4.597399         0.006143         0.789254
 C         4.317835        -0.455338         2.151837
 O         2.948858        -0.184802         2.452162
 C         2.278251        -0.658281         1.206154
 H        -0.750924         0.700402         0.413252
 H        -0.566297        -0.024305        -1.210663
 H        -0.888231        -1.033611         0.164166
 H         2.365713         1.712874        -1.063926
 H         2.471023         1.807771         0.827313
 H         2.196167        -0.348722        -1.981169
 H         2.257741        -1.893956        -1.110461
 H         4.417911        -1.563734         2.148735
 H         4.979853         0.102512         2.865007
 H         2.159455        -1.790434         1.174936
