19
Iteration:  4834
 C        -0.113580        -0.025839        -0.035385
 C         1.382205        -0.103996         0.071363
 C         2.306559         1.169436         0.080487
 C         3.219753        -0.085613         0.153337
 C         2.411748        -0.710993        -0.989057
 O         4.547437        -0.246499         0.664839
 C         4.274564        -0.213184         2.155866
 O         2.836863        -0.227320         2.403677
 C         2.296191        -0.767422         1.147550
 H        -0.502428         0.465501         0.842217
 H        -0.547397         0.359309        -0.903160
 H        -0.467249        -0.978444         0.246003
 H         2.275830         1.750815        -0.895362
 H         2.123379         1.627066         1.041856
 H         2.516362        -0.249861        -1.953771
 H         2.308917        -1.808150        -1.303408
 H         4.785435        -1.028531         2.575476
 H         4.680953         0.758513         2.393518
 H         2.263498        -1.806066         1.067236
