19
Iteration:  2488charge 0 multiplicity 1
 C        -0.174090         0.082472         0.001882
 C         1.282105        -0.111013         0.147995
 C         2.284044         1.113518         0.099827
 C         3.311493        -0.222021         0.190882
 C         2.415701        -0.799496        -0.955741
 O         4.555869        -0.155077         0.654775
 C         4.318969        -0.182477         2.083129
 O         2.822057        -0.227046         2.331569
 C         2.303912        -0.794799         1.130448
 H        -0.438086         0.508333         0.969541
 H        -0.308431         0.952628        -0.754563
 H        -0.748289        -0.929554        -0.278698
 H         2.229152         1.664254        -0.795999
 H         2.392815         1.807972         0.950287
 H         2.412514        -0.208543        -1.875441
 H         2.614695        -1.847076        -1.245329
 H         4.793935        -1.043734         2.679542
 H         4.727614         0.764358         2.345952
 H         2.283280        -1.934318         1.058102
