19
Iteration:  3302charge 0 multiplicity 1
 C        -0.115542         0.011628        -0.073670
 C         1.354355        -0.071721         0.134068
 C         2.319402         1.057374         0.142549
 C         3.217948        -0.161315         0.134835
 C         2.331639        -0.782737        -0.978376
 O         4.595212        -0.106492         0.699497
 C         4.299035        -0.147989         2.074737
 O         2.778143        -0.284691         2.354663
 C         2.365095        -0.779019         1.104631
 H        -0.435045         0.439769         0.950503
 H        -0.294658         0.756284        -0.904809
 H        -0.518557        -0.959017        -0.201377
 H         2.335128         1.756084        -0.676232
 H         2.388131         1.663420         1.033405
 H         2.314185        -0.367794        -1.936918
 H         2.333935        -1.884884        -0.981368
 H         4.639935        -1.023983         2.604859
 H         4.529526         0.823988         2.650961
 H         2.384090        -1.802831         1.340302
