19
Iteration:  1579
 C        -0.098912         0.019087         0.114908
 C         1.399506         0.033953         0.113317
 C         2.463827         1.163783         0.120338
 C         3.287492        -0.228348         0.110661
 C         2.299679        -0.687068        -1.025831
 O         4.611261        -0.411112         0.671314
 C         4.150085         0.049112         2.015480
 O         2.771984        -0.358354         2.362724
 C         2.311626        -0.800528         1.109006
 H        -0.312055         0.504677         1.147349
 H        -0.687816         0.370554        -0.760228
 H        -0.394794        -0.992560         0.371673
 H         2.465039         1.842693        -0.678801
 H         2.293719         1.698383         1.092548
 H         2.354555        -0.276928        -2.057424
 H         2.196349        -1.751135        -1.173484
 H         4.874308        -0.290845         2.730756
 H         4.113323         1.108664         2.008689
 H         2.124077        -1.857511         1.289983
