19
Iteration:  2242charge 0 multiplicity 1
 C        -0.125912         0.040483         0.089284
 C         1.375689        -0.015723         0.053573
 C         2.332998         1.175846         0.011761
 C         3.247889        -0.133930         0.141936
 C         2.378791        -0.751820        -0.996007
 O         4.489487        -0.270088         0.678172
 C         4.342759        -0.072560         2.118407
 O         2.882488        -0.386907         2.386977
 C         2.234141        -0.816240         1.137761
 H        -0.579858         0.859956         0.884249
 H        -0.322503         0.475921        -0.909597
 H        -0.644075        -0.924025         0.259855
 H         2.399947         1.686567        -0.916560
 H         2.246936         1.921134         0.780008
 H         2.433162        -0.383243        -2.041247
 H         2.459870        -1.891227        -0.911054
 H         5.056114        -0.727954         2.722817
 H         4.443483         0.981089         2.333496
 H         2.033635        -1.950714         1.289124
