19
Iteration:   666charge 0 multiplicity 1
 C        -0.096177         0.136883         0.028629
 C         1.373214        -0.057902         0.122446
 C         2.331910         1.136269         0.143332
 C         3.198116        -0.186415         0.205090
 C         2.358049        -0.813834        -0.952215
 O         4.552753        -0.185562         0.598786
 C         4.262454         0.053770         2.034831
 O         2.925436        -0.477276         2.353324
 C         2.268867        -0.824112         1.128924
 H        -0.559952         0.480749         0.948521
 H        -0.313106         0.823307        -0.707049
 H        -0.723913        -0.791212        -0.136819
 H         2.569203         1.741220        -0.816305
 H         2.296596         1.602000         1.129368
 H         2.303268        -0.573973        -2.080182
 H         2.146449        -1.862106        -0.887514
 H         4.856030        -0.614537         2.527835
 H         4.198971         1.104098         2.338767
 H         2.138714        -1.990970         1.129860
