19
Iteration:  3929charge 0 multiplicity 1
 C        -0.147461        -0.094283        -0.000179
 C         1.380466         0.013464         0.066881
 C         2.346863         1.180735         0.180175
 C         3.227235        -0.172390         0.132854
 C         2.358463        -0.709433        -1.048533
 O         4.568031        -0.401637         0.734216
 C         4.229261         0.060375         2.044352
 O         2.820633        -0.299818         2.324151
 C         2.383958        -0.821380         1.146165
 H        -0.560389         0.471605         0.818235
 H        -0.428513         0.391154        -0.962648
 H        -0.565988        -1.037121         0.056366
 H         2.403833         2.060247        -0.512855
 H         2.326791         1.636669         1.192095
 H         2.531641         0.047743        -1.766731
 H         2.324788        -1.854959        -1.224431
 H         4.721547        -0.588517         2.783872
 H         4.371290         1.182380         2.344336
 H         2.227030        -1.925738         1.287586
