19
Iteration:  4757
 C        -0.121738         0.085523         0.009962
 C         1.374230        -0.101968         0.050689
 C         2.278341         1.091985         0.185652
 C         3.293246        -0.188837         0.163675
 C         2.451933        -0.734704        -0.985698
 O         4.537696        -0.309122         0.688305
 C         4.175928         0.059303         2.042505
 O         2.830263        -0.347993         2.350196
 C         2.347825        -0.838692         1.135168
 H        -0.364577         0.362652         1.065680
 H        -0.410233         0.877643        -0.625705
 H        -0.723507        -0.710079        -0.327913
 H         2.243511         1.852898        -0.737475
 H         2.238099         1.633795         1.123099
 H         2.437832        -0.154361        -1.943634
 H         2.508610        -1.876240        -1.022251
 H         4.936754        -0.515659         2.615037
 H         4.354318         1.094457         2.129870
 H         2.209853        -1.878821         1.098325
