19
Iteration:  4565charge 0 multiplicity 1
 C        -0.150731        -0.022025         0.051765
 C         1.399744        -0.084832         0.092948
 C         2.251887         1.146720        -0.023612
 C         3.267094        -0.190755         0.114717
 C         2.405123        -0.796952        -1.003842
 O         4.539429        -0.075638         0.751658
 C         4.269038        -0.380619         2.142423
 O         2.828084        -0.151055         2.386876
 C         2.343964        -0.689199         1.117780
 H        -0.559489         0.399631         0.912584
 H        -0.538289         0.541681        -0.877935
 H        -0.559623        -1.048201        -0.119184
 H         2.317292         1.844537        -0.891567
 H         2.314419         1.773063         0.881121
 H         2.564188        -0.165940        -1.931828
 H         2.583668        -1.936527        -1.217621
 H         4.522840        -1.423109         2.224941
 H         4.844633         0.238877         2.855083
 H         2.110711        -1.719470         1.259650
