19
Iteration:  2620
 C        -0.060692         0.046291         0.045803
 C         1.371877        -0.118346         0.104636
 C         2.462911         1.157527         0.102701
 C         3.244979        -0.132091         0.162866
 C         2.339944        -0.814591        -0.991049
 O         4.512025        -0.121493         0.670369
 C         4.236297        -0.168046         2.080183
 O         2.795259        -0.265552         2.330047
 C         2.272328        -0.836960         1.118449
 H        -0.474722         0.353747         0.973271
 H        -0.496314         0.588431        -0.777320
 H        -0.495412        -0.972667        -0.069970
 H         2.461869         1.799631        -0.725272
 H         2.364552         1.728568         1.004268
 H         2.333612        -0.223795        -1.890662
 H         2.448813        -1.923950        -1.137042
 H         4.835387        -0.909070         2.632182
 H         4.366462         0.779824         2.502179
 H         2.240688        -1.975486         1.210105
