19
Iteration:  3574charge 0 multiplicity 1
 C        -0.135543         0.082835         0.039456
 C         1.361515        -0.151908         0.024816
 C         2.335208         1.098523         0.125232
 C         3.255856        -0.127205         0.109981
 C         2.393891        -0.775600        -1.016698
 O         4.539010        -0.173564         0.747612
 C         4.192659        -0.038339         2.092418
 O         2.890305        -0.391414         2.325287
 C         2.331841        -0.795664         1.157756
 H        -0.351325         0.686032         0.973584
 H        -0.203260         0.546125        -0.986313
 H        -0.764164        -0.902538         0.134854
 H         2.404120         1.755600        -0.779765
 H         2.201744         1.744420         1.022892
 H         2.534262        -0.301835        -2.011686
 H         2.277548        -1.874109        -0.928221
 H         4.647616        -0.632939         2.851034
 H         4.196154         1.008011         2.295971
 H         2.280705        -1.852103         1.078799
