19
Iteration:  3930charge 0 multiplicity 1
 C        -0.151295        -0.094296        -0.000024
 C         1.386044         0.016247         0.060418
 C         2.346664         1.177241         0.182954
 C         3.220436        -0.172014         0.126488
 C         2.355486        -0.706264        -1.047827
 O         4.572001        -0.395001         0.739045
 C         4.236736         0.057149         2.044748
 O         2.813157        -0.301615         2.320250
 C         2.381714        -0.821859         1.160074
 H        -0.538871         0.468095         0.799957
 H        -0.419679         0.380481        -1.021139
 H        -0.593302        -1.076550         0.064560
 H         2.394750         2.046131        -0.501163
 H         2.351080         1.630199         1.189220
 H         2.536009         0.068510        -1.754557
 H         2.288529        -1.885143        -1.222249
 H         4.753379        -0.570042         2.748917
 H         4.443318         1.159363         2.353275
 H         2.228205        -1.903863         1.283298
