19
Iteration:   898charge 0 multiplicity 1
 C        -0.075626        -0.044258         0.138476
 C         1.399760        -0.037407         0.070447
 C         2.427101         1.223145         0.234052
 C         3.242344        -0.167574         0.123434
 C         2.256577        -0.647236        -1.021383
 O         4.522825        -0.356086         0.649609
 C         4.238711         0.025834         2.026361
 O         2.796076        -0.392163         2.328399
 C         2.331774        -0.810366         1.107678
 H        -0.325253         0.281906         1.129078
 H        -0.613270         0.447574        -0.708703
 H        -0.396533        -1.173004         0.054741
 H         2.607126         1.714853        -0.735961
 H         2.729486         1.945955         1.039729
 H         2.294102        -0.175642        -1.970947
 H         2.242799        -1.712900        -1.076946
 H         5.001748        -0.475468         2.690459
 H         4.243341         1.084343         1.970110
 H         2.177089        -1.824837         1.024819
