19
Iteration:  4068charge 0 multiplicity 1
 C        -0.132718        -0.162464         0.049165
 C         1.351768        -0.044982         0.070483
 C         2.331694         1.218151        -0.020247
 C         3.305593        -0.066164         0.106739
 C         2.370533        -0.752114        -1.074272
 O         4.589885        -0.238178         0.747158
 C         4.217787        -0.328571         2.168351
 O         2.818309        -0.130602         2.408855
 C         2.332357        -0.696866         1.144654
 H        -0.806513         0.097045         1.012121
 H        -0.600603         0.519395        -0.662686
 H        -0.487687        -1.219686        -0.179543
 H         2.406651         1.928855        -0.862776
 H         2.253721         1.853004         0.875425
 H         2.243788        -0.220346        -2.056315
 H         2.436112        -1.811890        -1.009013
 H         4.657698        -1.341362         2.422998
 H         4.575321         0.519441         2.760197
 H         2.384597        -1.764848         1.081070
