19
Iteration:  3621charge 0 multiplicity 1
 C        -0.162736        -0.095724        -0.068564
 C         1.355654        -0.049632         0.046733
 C         2.410560         1.179939         0.172720
 C         3.294491        -0.159338         0.171400
 C         2.309338        -0.704760        -0.999458
 O         4.525848        -0.221141         0.666484
 C         4.261316        -0.067821         2.189718
 O         2.894958        -0.277465         2.350145
 C         2.256132        -0.855163         1.115614
 H        -0.457521         0.729801         0.639707
 H        -0.442098        -0.024243        -1.142403
 H        -0.540809        -0.926026         0.424061
 H         2.460344         1.872330        -0.698900
 H         2.441076         1.861307         1.032723
 H         2.336103        -0.154867        -1.976491
 H         2.379495        -1.769866        -1.145987
 H         4.816070        -0.913369         2.572441
 H         4.469731         0.887212         2.571104
 H         2.023271        -1.901270         1.133630
