19
Iteration:  2086charge 0 multiplicity 1
 C        -0.241789         0.110564         0.040519
 C         1.294162        -0.159615         0.132476
 C         2.365136         1.120958         0.052782
 C         3.229572        -0.095706         0.165637
 C         2.391265        -0.796197        -1.011801
 O         4.522370        -0.188877         0.672565
 C         4.274663        -0.273936         2.167861
 O         2.932526        -0.171370         2.326149
 C         2.365853        -0.848740         1.132399
 H        -0.399534         0.858668         0.835495
 H        -0.547024         0.538657        -0.967784
 H        -0.885652        -0.841600         0.187381
 H         2.542187         1.721176        -0.862679
 H         2.394578         1.859483         0.897134
 H         2.177850        -0.231660        -1.982847
 H         2.362684        -1.880093        -1.218847
 H         4.827992        -1.062589         2.562845
 H         4.602258         0.755181         2.435176
 H         2.416035        -1.986316         1.192200
