19
Iteration:  1544
 C        -0.140019         0.183138         0.047425
 C         1.397234        -0.088586         0.092185
 C         2.354446         1.090356         0.111823
 C         3.255357        -0.242440         0.128199
 C         2.362106        -0.756199        -1.036869
 O         4.518830        -0.249172         0.677463
 C         4.176130        -0.056791         2.034519
 O         2.919701        -0.315906         2.381775
 C         2.337722        -0.863697         1.177551
 H        -0.367635         0.631393         1.065443
 H        -0.716076         0.878867        -0.615193
 H        -0.516588        -0.862867        -0.024543
 H         2.262394         1.653474        -0.748240
 H         2.195337         1.687149         1.008493
 H         2.414189        -0.136152        -1.889181
 H         2.403610        -1.847513        -1.044986
 H         4.906981        -0.561603         2.666214
 H         4.345759         1.031796         2.083065
 H         2.059176        -1.976206         1.106265
