19
Iteration:  3456charge 0 multiplicity 1
 C        -0.147974         0.010315        -0.054417
 C         1.401356        -0.058209         0.088138
 C         2.310037         1.152334         0.101005
 C         3.310687        -0.214814         0.171529
 C         2.318719        -0.787905        -0.910540
 O         4.540805        -0.082457         0.663549
 C         4.229988        -0.160577         2.136470
 O         2.839071        -0.323226         2.328436
 C         2.351419        -0.790283         1.118087
 H        -0.564005         0.776687         0.697256
 H        -0.476250         0.295713        -1.079195
 H        -0.625425        -0.899662         0.156006
 H         2.398645         1.725991        -0.828673
 H         2.347132         1.671618         1.068897
 H         2.320503        -0.133566        -1.807168
 H         2.322427        -1.880798        -1.071311
 H         4.736930        -1.079949         2.550861
 H         4.781908         0.829997         2.550659
 H         2.303913        -1.968448         1.300273
