19
Iteration:  2548charge 0 multiplicity 1
 C        -0.152478        -0.102324        -0.020118
 C         1.398652         0.057440         0.161479
 C         2.429445         1.136899         0.139917
 C         3.231933        -0.174260         0.098225
 C         2.361148        -0.718782        -0.970618
 O         4.555519        -0.220331         0.580655
 C         4.223700        -0.193582         2.097447
 O         2.813770        -0.280889         2.398606
 C         2.313758        -0.721279         1.164418
 H        -0.780799         0.434611         0.758730
 H        -0.590027         0.114134        -0.965242
 H        -0.473450        -1.109430         0.179710
 H         2.635698         1.605243        -0.905404
 H         2.472166         1.884255         0.942364
 H         2.199586        -0.086860        -1.862356
 H         2.624110        -1.747570        -1.063912
 H         4.511737        -0.937956         2.809136
 H         4.579809         0.872386         2.385013
 H         2.154555        -1.762572         1.217539
