19
Iteration:  1460
 C        -0.162092        -0.160711         0.062418
 C         1.370382         0.004610         0.122104
 C         2.359939         1.234596         0.077238
 C         3.199553        -0.130305         0.167919
 C         2.413345        -0.682455        -0.976500
 O         4.479342        -0.288445         0.648426
 C         4.251899        -0.341256         2.068297
 O         2.908481        -0.140244         2.321869
 C         2.307233        -0.653235         1.143873
 H        -0.607651         0.530545         0.873442
 H        -0.516604         0.122362        -0.926053
 H        -0.582237        -1.110591         0.245670
 H         2.609937         1.855677        -0.833307
 H         2.340782         1.782957         1.131602
 H         2.700016        -0.304076        -2.037614
 H         2.287915        -1.799835        -1.032993
 H         4.420350        -1.395150         2.495569
 H         4.895294         0.318431         2.673375
 H         2.276633        -1.732054         1.112574
