19
Iteration:   870
 C        -0.161943        -0.133446         0.095731
 C         1.361930         0.057203         0.122033
 C         2.368347         1.235470         0.214891
 C         3.227911        -0.204666         0.122730
 C         2.359669        -0.644854        -1.082954
 O         4.549250        -0.401830         0.656873
 C         4.301525        -0.061825         2.022373
 O         2.867236        -0.331539         2.347762
 C         2.268956        -0.687454         1.167365
 H        -0.690133        -0.039886         1.076916
 H        -0.691472         0.413893        -0.701865
 H        -0.247892        -1.102061        -0.262422
 H         2.635781         1.884842        -0.595387
 H         2.608980         1.800900         1.083801
 H         2.401449        -0.119923        -2.073549
 H         2.245423        -1.799665        -1.222246
 H         4.922540        -0.586907         2.716904
 H         4.392284         1.060534         1.972061
 H         1.957711        -1.853094         1.200842
