19
Iteration:  1482
 C        -0.123253        -0.040616        -0.040585
 C         1.367404        -0.064296         0.087815
 C         2.312831         1.188144         0.079018
 C         3.241007        -0.132000         0.134565
 C         2.293301        -0.674641        -0.960186
 O         4.563682        -0.277520         0.543723
 C         4.379623        -0.320562         2.159995
 O         2.844968        -0.179828         2.444021
 C         2.253944        -0.701079         1.193848
 H        -0.534425         0.428650         0.938500
 H        -0.572917         0.322598        -0.963755
 H        -0.403619        -1.074174        -0.029427
 H         2.253009         1.744050        -0.912335
 H         2.256078         1.875324         1.047461
 H         2.386396        -0.188497        -2.041481
 H         2.410080        -1.782715        -1.075773
 H         4.822631        -1.220675         2.687308
 H         4.864146         0.565788         2.595670
 H         2.195998        -1.752993         1.308751
