19
Iteration:  1229
 C        -0.118150         0.204548         0.094745
 C         1.395313        -0.169646         0.044630
 C         2.355934         1.071759         0.260298
 C         3.226668        -0.161443         0.113618
 C         2.284654        -0.729855        -0.996542
 O         4.550123        -0.148306         0.635082
 C         4.304326        -0.014308         2.007858
 O         2.768712        -0.434574         2.348870
 C         2.377857        -0.891366         1.094717
 H        -0.407328         0.683033         1.064173
 H        -0.328738         0.838834        -0.785735
 H        -0.721168        -0.642337         0.046960
 H         2.496516         1.678203        -0.707258
 H         2.523967         1.504470         1.244560
 H         2.201478        -0.248798        -1.919811
 H         2.535702        -1.738560        -1.063097
 H         4.757631        -0.752157         2.704141
 H         4.432646         1.011992         2.342485
 H         2.399942        -2.076991         1.107499
