19
Iteration:   911
 C        -0.131349         0.009064         0.187216
 C         1.385243         0.011405         0.175810
 C         2.382964         1.115013         0.096395
 C         3.208280        -0.200562         0.088355
 C         2.345543        -0.656155        -1.093229
 O         4.633603        -0.291139         0.705836
 C         4.245398         0.012938         2.021106
 O         2.844883        -0.388712         2.340536
 C         2.283606        -0.857472         1.091080
 H        -0.593600         0.568220         0.980896
 H        -0.481682         0.604610        -0.713157
 H        -0.538180        -0.988567         0.137949
 H         2.372598         1.802046        -0.719794
 H         2.186207         1.614341         1.093400
 H         2.293922        -0.047774        -1.978298
 H         2.094936        -1.759828        -1.324908
 H         4.831530        -0.564014         2.752929
 H         4.277370         1.049593         2.302125
 H         2.187391        -1.965729         1.138617
