19
Iteration:   336
 C        -0.124615        -0.076785        -0.025208
 C         1.356479        -0.051142         0.103969
 C         2.255855         1.137089         0.152836
 C         3.228051        -0.089213         0.174461
 C         2.324103        -0.719088        -0.855874
 O         4.563251        -0.229368         0.633813
 C         4.298262        -0.348328         2.058724
 O         2.894658        -0.123453         2.320144
 C         2.330806        -0.694141         1.113262
 H        -0.587312         0.507532         0.838111
 H        -0.409113         0.332374        -0.986314
 H        -0.497672        -1.045793        -0.178266
 H         2.273721         1.686470        -0.815400
 H         2.244654         1.794877         0.995333
 H         2.451412        -0.329192        -1.820251
 H         2.377913        -1.811441        -0.907684
 H         4.668842        -1.343079         2.231379
 H         4.835538         0.361963         2.663465
 H         2.203803        -1.744951         1.264143
