19
Iteration:  2859charge 0 multiplicity 1
 C        -0.101827        -0.043470        -0.018419
 C         1.381070        -0.024699         0.033938
 C         2.387931         1.137545         0.053763
 C         3.218393        -0.149311         0.157116
 C         2.318002        -0.635696        -0.946066
 O         4.497880        -0.267440         0.736903
 C         4.265883        -0.041727         2.085239
 O         2.862586        -0.349925         2.363216
 C         2.303664        -0.824450         1.166092
 H        -0.492338         0.387884         0.877430
 H        -0.518670         0.508241        -0.943575
 H        -0.372072        -1.170133        -0.146365
 H         2.547097         1.790286        -0.828946
 H         2.241500         1.758327         0.977042
 H         2.390134        -0.123120        -1.884024
 H         2.369405        -1.745954        -1.094302
 H         4.859654        -0.785573         2.581268
 H         4.586414         0.945300         2.530892
 H         2.256042        -2.053096         1.165128
