19
Iteration:  3821charge 0 multiplicity 1
 C        -0.151629        -0.092316        -0.025738
 C         1.347877        -0.061346         0.019487
 C         2.359268         1.164141         0.159405
 C         3.245306        -0.170767         0.165093
 C         2.417146        -0.729898        -0.959298
 O         4.531711        -0.226880         0.685823
 C         4.329064        -0.151280         2.063120
 O         2.838928        -0.242642         2.377451
 C         2.238314        -0.735817         1.172762
 H        -0.586924         0.643031         0.707216
 H        -0.459752         0.275091        -1.167378
 H        -0.654855        -1.121125         0.020635
 H         2.553289         1.777397        -0.715436
 H         2.276044         1.568915         1.153724
 H         2.330815        -0.101797        -1.849143
 H         2.453546        -1.746010        -1.505437
 H         4.905877        -0.802361         2.686268
 H         4.552210         0.838119         2.512808
 H         2.189704        -1.836586         1.223410
