19
Iteration:  3602
 C        -0.141361         0.036841        -0.020286
 C         1.375302        -0.084012         0.102256
 C         2.348556         1.068725         0.094534
 C         3.200875        -0.143052         0.105971
 C         2.427207        -0.723822        -1.018579
 O         4.560279        -0.155855         0.690932
 C         4.292685        -0.082083         2.049186
 O         2.776887        -0.381044         2.446601
 C         2.328131        -0.781592         1.168033
 H        -0.582455         0.776524         0.626006
 H        -0.295288         0.084511        -1.063468
 H        -0.696667        -0.822755         0.379655
 H         2.521089         1.762687        -0.728284
 H         2.307815         1.700292         0.989660
 H         2.465631        -0.167129        -1.933088
 H         2.267920        -1.817390        -1.219175
 H         4.776168        -0.819132         2.760132
 H         4.344851         1.032583         2.319035
 H         2.433481        -1.979739         1.112511
