19
Iteration:  2449charge 0 multiplicity 1
 C        -0.137730        -0.080497         0.042797
 C         1.383617        -0.019946         0.023728
 C         2.376349         1.148382         0.077732
 C         3.267117        -0.169863         0.118770
 C         2.266351        -0.766579        -0.955212
 O         4.613680        -0.199768         0.671792
 C         4.277998        -0.183848         2.128454
 O         2.772452        -0.252837         2.384621
 C         2.352445        -0.690546         1.084424
 H        -0.429540         0.345727         1.017604
 H        -0.603648         0.472149        -0.705952
 H        -0.558634        -1.030846         0.131104
 H         2.633299         1.683800        -0.913456
 H         2.425982         1.698945         1.033506
 H         2.125771        -0.174922        -1.871869
 H         2.216577        -1.875660        -1.050811
 H         4.790397        -1.075402         2.498439
 H         4.546992         0.767540         2.733001
 H         2.157300        -1.756590         1.187418
