19
Iteration:  4709charge 0 multiplicity 1
 C        -0.096589         0.024993         0.050570
 C         1.346913        -0.056290         0.087280
 C         2.453037         1.112306         0.057158
 C         3.227460        -0.214515         0.120650
 C         2.288012        -0.733077        -1.063899
 O         4.579136        -0.164353         0.718347
 C         4.179079        -0.022431         2.184786
 O         2.850065        -0.415831         2.354949
 C         2.306450        -0.811170         1.152003
 H        -0.479517         0.795872         0.717455
 H        -0.404609         0.090833        -0.972892
 H        -0.592903        -1.000458         0.101245
 H         2.602803         1.718191        -0.886585
 H         2.341726         1.788484         0.994448
 H         2.571090        -0.033477        -1.879641
 H         1.989117        -1.744424        -1.171488
 H         4.923544        -0.474366         2.729740
 H         4.325869         1.103222         2.337591
 H         2.318300        -1.911349         1.012561
