19
Iteration:   847
 C        -0.162104        -0.023684         0.019718
 C         1.368211        -0.101271         0.084527
 C         2.291674         1.135521         0.112305
 C         3.216641        -0.166534         0.171783
 C         2.322027        -0.579363        -0.985532
 O         4.537862        -0.307832         0.627539
 C         4.345807        -0.133789         2.084925
 O         2.917544        -0.241697         2.389518
 C         2.310408        -0.827103         1.177850
 H        -0.566527         0.315620         0.985553
 H        -0.440752         0.633569        -0.829825
 H        -0.567902        -0.916827        -0.248435
 H         2.412670         1.783897        -0.698275
 H         2.217068         1.708077         1.038010
 H         2.282325         0.030478        -1.897619
 H         2.114562        -1.717678        -1.245587
 H         4.836471        -0.919347         2.648123
 H         4.720233         0.883130         2.200754
 H         2.310669        -2.002145         1.004589
