19
Iteration:  4356
 C        -0.225301        -0.021927        -0.026494
 C         1.398551        -0.097354         0.036182
 C         2.357470         1.153969         0.101930
 C         3.247504        -0.156685         0.125058
 C         2.351140        -0.713183        -0.951785
 O         4.583837        -0.204899         0.726705
 C         4.239964        -0.164444         2.174176
 O         2.842914        -0.180909         2.309090
 C         2.341759        -0.854902         1.143372
 H        -0.485365         0.592924         0.762551
 H        -0.704386         0.176388        -1.025674
 H        -0.396140        -1.048142         0.238348
 H         2.497525         1.748128        -0.855166
 H         2.319592         1.987044         0.880015
 H         2.202591        -0.200161        -1.876995
 H         2.260308        -1.806457        -1.320643
 H         4.621752        -1.151837         2.598190
 H         4.758137         0.689177         2.742823
 H         2.480119        -1.900793         1.268745
