19
Iteration:  4979charge 0 multiplicity 1
 C        -0.114346        -0.024220        -0.057086
 C         1.349544        -0.066170         0.078976
 C         2.382480         1.109320         0.089932
 C         3.219664        -0.219494         0.163837
 C         2.309417        -0.710048        -0.974571
 O         4.517788        -0.177877         0.718116
 C         4.297519        -0.140176         2.147113
 O         2.846015        -0.247988         2.336537
 C         2.338458        -0.749020         1.163680
 H        -0.621803         0.207358         0.905423
 H        -0.522052         0.721848        -0.839975
 H        -0.442433        -1.031594        -0.296229
 H         2.440910         1.706229        -0.862934
 H         2.427853         1.868908         1.021621
 H         2.466990        -0.290361        -1.988843
 H         2.285605        -1.873325        -1.195346
 H         4.742311        -1.109847         2.469628
 H         4.768139         0.688599         2.635331
 H         2.154037        -1.817684         1.151665
