19
Iteration:  2194charge 0 multiplicity 1
 C        -0.117226         0.131151        -0.001177
 C         1.324988        -0.043260         0.187946
 C         2.425475         1.115032         0.209268
 C         3.140412        -0.269014         0.188386
 C         2.364668        -0.840067        -1.023192
 O         4.574568        -0.204909         0.669568
 C         4.225475         0.005018         2.031991
 O         2.903042        -0.331393         2.251466
 C         2.274987        -0.854433         1.145216
 H        -0.592664         0.677897         0.749403
 H        -0.247159         0.699241        -0.930137
 H        -0.601424        -0.867581         0.079269
 H         2.548116         1.743795        -0.781674
 H         2.418738         1.784445         1.158912
 H         2.274676        -0.280388        -1.998070
 H         2.268274        -1.934250        -1.037780
 H         4.847494        -0.585356         2.634056
 H         4.424188         1.028079         2.527481
 H         2.268214        -1.969883         1.211786
