19
Iteration:  3099charge 0 multiplicity 1
 C        -0.073997        -0.148285         0.044388
 C         1.434592        -0.049758         0.100642
 C         2.334425         1.242274         0.162216
 C         3.230536        -0.090814         0.080524
 C         2.461972        -0.721879        -1.030252
 O         4.430933        -0.260042         0.639970
 C         4.226237        -0.248451         2.164718
 O         2.796746        -0.175487         2.352385
 C         2.326506        -0.728048         1.156133
 H        -0.514962         0.576027         0.664394
 H        -0.495177         0.278175        -0.863878
 H        -0.531986        -1.142428         0.241307
 H         2.439479         1.623721        -0.950677
 H         2.357573         1.898272         1.086176
 H         2.456788        -0.352101        -2.087232
 H         2.419101        -1.839862        -1.158721
 H         4.686731        -1.255586         2.530443
 H         4.746716         0.649685         2.580728
 H         2.418846        -1.865942         1.154400
