19
Iteration:   668charge 0 multiplicity 1
 C        -0.085375         0.131661         0.024811
 C         1.357680        -0.051389         0.132229
 C         2.322823         1.148034         0.154782
 C         3.219404        -0.182248         0.196790
 C         2.355331        -0.826683        -0.957707
 O         4.549787        -0.184047         0.595041
 C         4.255204         0.034498         2.033737
 O         2.920256        -0.471850         2.356105
 C         2.277059        -0.806805         1.133174
 H        -0.545490         0.442273         0.891888
 H        -0.285362         0.873357        -0.689323
 H        -0.688491        -0.822426        -0.111430
 H         2.469791         1.743115        -0.786900
 H         2.272754         1.609531         1.100593
 H         2.362305        -0.617129        -2.152945
 H         2.151012        -1.919132        -0.858146
 H         4.876049        -0.671495         2.527526
 H         4.237548         1.081714         2.328980
 H         2.123607        -1.940093         1.130755
