19
Iteration:  1842
 C        -0.134192         0.000672         0.019272
 C         1.344407        -0.014765         0.153187
 C         2.482615         1.147842         0.109520
 C         3.294068        -0.177139         0.076073
 C         2.315013        -0.687194        -1.003201
 O         4.490105        -0.368117         0.657254
 C         4.292986        -0.004333         2.017230
 O         2.811848        -0.321714         2.426105
 C         2.265983        -0.776030         1.189226
 H        -0.755523         0.239233         0.918890
 H        -0.476824         0.645485        -0.817294
 H        -0.334715        -1.061901        -0.147098
 H         2.584960         1.724988        -0.821050
 H         2.570957         1.648689         1.020130
 H         2.199750        -0.161012        -1.939174
 H         2.094844        -1.757893        -1.066099
 H         5.067851        -0.684624         2.609032
 H         4.456415         1.083192         2.232602
 H         2.342441        -1.858089         1.157383
