19
Iteration:   309
 C        -0.157645        -0.252887         0.065299
 C         1.383850        -0.019249         0.128887
 C         2.403029         1.264819         0.047242
 C         3.197835        -0.133167         0.107968
 C         2.333929        -0.707489        -1.021995
 O         4.535033        -0.138969         0.662747
 C         4.248247        -0.499328         2.077873
 O         2.900403        -0.094786         2.413795
 C         2.297253        -0.603528         1.177764
 H        -0.525118         0.601866         0.579784
 H        -0.444648        -0.062516        -1.029625
 H        -0.633913        -1.288168         0.255420
 H         2.666711         1.946022        -0.904446
 H         2.413524         1.901050         1.007607
 H         2.363667        -0.205973        -2.085127
 H         2.342413        -1.886565        -1.121813
 H         4.424653        -1.606230         2.080177
 H         4.876467         0.120747         2.766042
 H         1.987224        -1.699969         1.448568
