19
Iteration:  3454charge 0 multiplicity 1
 C        -0.159298         0.020165        -0.053256
 C         1.405229        -0.063473         0.090316
 C         2.309922         1.135906         0.095126
 C         3.320784        -0.191703         0.184105
 C         2.316420        -0.778829        -0.910759
 O         4.541486        -0.080659         0.654620
 C         4.242471        -0.170985         2.143850
 O         2.839790        -0.321039         2.320584
 C         2.349216        -0.790600         1.109941
 H        -0.543326         0.828397         0.670492
 H        -0.514943         0.272002        -1.067320
 H        -0.558245        -0.950267         0.166838
 H         2.346794         1.719994        -0.844958
 H         2.302730         1.625082         1.099904
 H         2.368628        -0.189993        -1.830268
 H         2.275510        -1.946175        -1.027635
 H         4.720169        -1.070050         2.596813
 H         4.754455         0.821658         2.638447
 H         2.246501        -1.950965         1.293836
