19
Iteration:  3839
 C        -0.107613         0.029116        -0.037150
 C         1.382375        -0.081368         0.075573
 C         2.294836         1.096336         0.132888
 C         3.238760        -0.126018         0.197267
 C         2.414213        -0.736279        -1.047372
 O         4.512120        -0.225820         0.639910
 C         4.199358        -0.049588         2.135971
 O         2.850096        -0.291311         2.402739
 C         2.355364        -0.851376         1.169812
 H        -0.430779         0.475627         0.931730
 H        -0.368478         0.563232        -0.872381
 H        -0.530775        -0.910633        -0.080189
 H         2.251843         1.681761        -0.839483
 H         2.280562         1.792918         1.004902
 H         2.557505        -0.384269        -2.103315
 H         2.290193        -1.824627        -1.032996
 H         4.930130        -0.803449         2.542727
 H         4.670605         0.883844         2.426828
 H         2.138818        -1.916412         1.033034
