19
Iteration:  1480charge 0 multiplicity 1
 C        -0.128750        -0.046139        -0.028704
 C         1.361216        -0.069638         0.070721
 C         2.327092         1.196416         0.084555
 C         3.247730        -0.108432         0.128169
 C         2.307218        -0.678826        -0.968570
 O         4.549173        -0.284372         0.559086
 C         4.378968        -0.338124         2.143175
 O         2.841604        -0.167922         2.442739
 C         2.247663        -0.706227         1.201106
 H        -0.528516         0.484399         0.956175
 H        -0.622079         0.293832        -0.985907
 H        -0.334521        -1.142332        -0.042519
 H         2.238016         1.722225        -0.866361
 H         2.288110         1.893558         1.006495
 H         2.306820        -0.130574        -1.994480
 H         2.479110        -1.811102        -1.040553
 H         4.861546        -1.184825         2.659004
 H         4.861705         0.511418         2.570571
 H         2.216895        -1.728923         1.355187
