19
Iteration:  3945
 C        -0.116109        -0.073247        -0.072116
 C         1.359106        -0.072672         0.049606
 C         2.383414         1.118749         0.223660
 C         3.230568        -0.208089         0.160559
 C         2.321246        -0.619616        -1.043048
 O         4.559979        -0.269881         0.710229
 C         4.375897        -0.038823         2.086138
 O         2.814789        -0.255622         2.406588
 C         2.254899        -0.802182         1.118915
 H        -0.657131         0.629543         0.631892
 H        -0.574869         0.185318        -1.067500
 H        -0.422187        -1.175835         0.197867
 H         2.488221         1.689125        -0.680504
 H         2.379163         1.657841         1.169693
 H         2.313724        -0.278240        -2.106012
 H         2.155089        -1.710306        -1.167049
 H         4.957765        -0.725724         2.719339
 H         4.385072         1.025202         2.263273
 H         2.187442        -1.883635         1.103177
