19
Iteration:  2099charge 0 multiplicity 1
 C        -0.094890         0.061798         0.076940
 C         1.393334        -0.036409         0.068583
 C         2.339226         1.078586         0.107554
 C         3.218822        -0.219342         0.143445
 C         2.278911        -0.770759        -1.039008
 O         4.555330        -0.190712         0.645487
 C         4.329567        -0.149859         2.146284
 O         2.845629        -0.213168         2.341377
 C         2.266226        -0.793829         1.131054
 H        -0.612836         0.647976         0.890227
 H        -0.386013         0.551559        -0.851730
 H        -0.551202        -0.942653         0.160536
 H         2.441134         1.555908        -0.807040
 H         2.301835         1.675482         1.016973
 H         2.429861        -0.251078        -2.004814
 H         2.237917        -1.868759        -1.069872
 H         4.746834        -1.074977         2.616184
 H         4.794031         0.670346         2.696273
 H         2.322380        -1.885106         1.155911
