19
Iteration:  2210
 C        -0.170057         0.132765         0.003484
 C         1.361531        -0.050101         0.116443
 C         2.388006         1.068207         0.092282
 C         3.316256        -0.175718         0.045538
 C         2.256004        -0.804732        -0.989283
 O         4.579412        -0.152028         0.644611
 C         4.278323        -0.020656         2.135342
 O         2.857723        -0.418794         2.422383
 C         2.287705        -0.848083         1.164152
 H        -0.589315         0.904299         0.799749
 H        -0.296063         0.575636        -1.004170
 H        -0.778951        -0.799759         0.059529
 H         2.408036         1.666431        -0.763867
 H         2.482071         1.641579         0.971283
 H         2.323738        -0.383416        -1.986000
 H         2.245470        -1.916851        -0.985731
 H         5.088532        -0.615815         2.724963
 H         4.449548         1.020082         2.324155
 H         1.976636        -1.930469         1.187929
