19
Iteration:  3365
 C        -0.092895        -0.158664        -0.008215
 C         1.363503        -0.034397         0.085454
 C         2.342581         1.208743         0.057923
 C         3.228682        -0.104713         0.171249
 C         2.346538        -0.726993        -0.984725
 O         4.559966        -0.157107         0.662030
 C         4.212394        -0.362953         2.166388
 O         2.868549        -0.114563         2.376810
 C         2.324323        -0.713068         1.131988
 H        -0.541500         0.021676         0.926223
 H        -0.536688         0.399114        -0.816836
 H        -0.403904        -1.167748        -0.120056
 H         2.481819         1.668705        -0.939204
 H         2.328755         1.908063         0.909901
 H         2.231933        -0.362813        -2.004139
 H         2.413783        -1.852329        -0.936214
 H         4.473183        -1.429530         2.368670
 H         4.852829         0.360422         2.719869
 H         2.058630        -1.823932         1.045666
