19
Iteration:  4182
 C        -0.184379         0.012940         0.010462
 C         1.433926         0.001077         0.007397
 C         2.395753         1.176487         0.181702
 C         3.244563        -0.252750         0.148367
 C         2.385536        -0.787163        -1.007125
 O         4.547436        -0.264668         0.717720
 C         4.160747         0.101757         2.092993
 O         2.860238        -0.424179         2.318330
 C         2.289377        -0.820891         1.124392
 H        -0.437912         0.484882         0.963650
 H        -0.589525         0.668268        -0.880916
 H        -0.448194        -1.067908         0.091144
 H         2.544901         1.781278        -0.770282
 H         2.557442         1.762617         1.150672
 H         2.582395        -0.284602        -1.893112
 H         2.307568        -1.862961        -0.869307
 H         4.995259        -0.318675         2.706572
 H         4.145023         1.268676         2.190670
 H         2.027956        -1.942819         1.246366
