19
Iteration:  3242charge 0 multiplicity 1
 C        -0.091769        -0.110533         0.042302
 C         1.326055        -0.064542         0.097602
 C         2.448599         1.217378         0.195340
 C         3.235728        -0.113845         0.066887
 C         2.374442        -0.685962        -1.034514
 O         4.558703        -0.359616         0.718684
 C         4.193699         0.037098         2.112860
 O         2.812989        -0.341273         2.330491
 C         2.270297        -0.792159         1.119817
 H        -0.415673         0.640306         0.645830
 H        -0.542860         0.208422        -0.842393
 H        -0.601500        -1.041095         0.366802
 H         2.441386         1.858700        -0.773439
 H         2.597113         1.777699         1.183261
 H         2.587021        -0.365199        -2.135335
 H         2.377585        -1.787961        -1.109560
 H         4.856687        -0.486090         2.862349
 H         4.346418         1.095598         2.146770
 H         2.234220        -1.887521         0.881071
