19
Iteration:  2302charge 0 multiplicity 1
 C        -0.125624        -0.040043         0.071544
 C         1.371114        -0.010358         0.115675
 C         2.365429         1.144334         0.100259
 C         3.250958        -0.210419         0.095598
 C         2.295857        -0.715908        -1.016770
 O         4.590822        -0.292329         0.654026
 C         4.237532        -0.173439         2.111585
 O         2.822910        -0.179830         2.309654
 C         2.338312        -0.767463         1.217079
 H        -0.731024         0.331980         0.882670
 H        -0.360615         0.558535        -0.861020
 H        -0.440014        -1.077845        -0.240936
 H         2.333176         1.718868        -0.869931
 H         2.330098         1.725837         1.079918
 H         2.429343        -0.081289        -1.931880
 H         2.298927        -1.765424        -1.252743
 H         4.842831        -0.941314         2.744050
 H         4.567516         0.871505         2.496921
 H         2.222538        -1.851818         1.407244
