19
Iteration:  4809charge 0 multiplicity 1
 C        -0.097392        -0.112978        -0.036055
 C         1.348069         0.028079         0.112485
 C         2.427927         1.212276         0.155708
 C         3.216534        -0.119800         0.177882
 C         2.344205        -0.735378        -0.968086
 O         4.579821        -0.292338         0.622114
 C         4.221746        -0.105567         2.159510
 O         2.837544        -0.272236         2.355888
 C         2.241047        -0.771165         1.104755
 H        -0.709238         0.022159         0.945116
 H        -0.467886         0.512568        -0.811959
 H        -0.318082        -1.191812        -0.249329
 H         2.647807         1.712577        -0.786480
 H         2.499583         1.722825         1.088993
 H         2.387220        -0.426753        -2.054000
 H         2.276154        -1.779226        -0.998974
 H         4.809505        -0.776919         2.664906
 H         4.557781         1.004424         2.276181
 H         2.126938        -1.854859         1.018715
