19
Iteration:   504charge 0 multiplicity 1
 C        -0.203899        -0.072762        -0.034666
 C         1.327151        -0.047916         0.045365
 C         2.344207         1.136187        -0.009372
 C         3.199883        -0.097102         0.156825
 C         2.345086        -0.742301        -0.965651
 O         4.485472        -0.071046         0.652641
 C         4.309979        -0.456980         2.108277
 O         3.008251        -0.155047         2.464847
 C         2.309631        -0.699201         1.237606
 H        -0.619914         0.457771         0.841889
 H        -0.459452         0.530097        -0.953118
 H        -0.600348        -1.175207         0.031084
 H         2.425426         1.649995        -0.964268
 H         2.357026         1.804666         0.827042
 H         2.134913        -0.388082        -2.019552
 H         2.323629        -1.814632        -0.958289
 H         4.639085        -1.558011         2.116840
 H         4.926242         0.296707         2.615914
 H         2.306429        -1.756165         1.341204
