19
Iteration:  3764charge 0 multiplicity 1
 C        -0.150411        -0.119953         0.001996
 C         1.353743        -0.021219        -0.014821
 C         2.331431         1.181949         0.103444
 C         3.231205        -0.124048         0.103108
 C         2.423462        -0.703786        -0.977774
 O         4.564353        -0.172071         0.704268
 C         4.280006        -0.292222         2.134536
 O         2.793702        -0.186493         2.396255
 C         2.293596        -0.791578         1.198034
 H        -0.516076         0.691334         0.781599
 H        -0.509947         0.142065        -1.097723
 H        -0.424575        -1.107261         0.330046
 H         2.344415         1.787694        -0.834753
 H         2.407866         1.971685         0.872162
 H         2.464529        -0.348018        -2.041705
 H         2.448293        -1.845993        -0.850643
 H         4.733325        -1.235651         2.318451
 H         4.743728         0.615373         2.518707
 H         2.334064        -1.822774         1.031062
