19
Iteration:  3294charge 0 multiplicity 1
 C        -0.092958         0.025214        -0.019621
 C         1.362192        -0.107813         0.146408
 C         2.363945         1.119733         0.133514
 C         3.301790        -0.133200         0.069667
 C         2.346287        -0.778501        -0.999353
 O         4.533317        -0.135984         0.714607
 C         4.287252        -0.106015         2.068417
 O         2.775933        -0.282985         2.385631
 C         2.303696        -0.836861         1.158365
 H        -0.766303         0.499586         0.871554
 H        -0.335739         0.555201        -1.022174
 H        -0.600512        -1.010298        -0.125298
 H         2.575461         1.505842        -0.891322
 H         2.204533         1.726969         1.065356
 H         2.220771        -0.155543        -1.953187
 H         2.520907        -1.847584        -1.238854
 H         4.864643        -0.954656         2.513614
 H         4.635458         0.846629         2.592182
 H         2.180170        -1.995350         1.114106
