19
Iteration:  3656
 C        -0.105846        -0.184587        -0.062101
 C         1.425416        -0.089117         0.131505
 C         2.364206         1.269261         0.109673
 C         3.237375        -0.069590         0.091199
 C         2.413929        -0.676322        -0.977276
 O         4.538608        -0.308559         0.642642
 C         4.263238        -0.189241         2.141429
 O         2.816809        -0.184460         2.414388
 C         2.226756        -0.773704         1.114139
 H        -0.496532         0.418478         0.766076
 H        -0.663962         0.299215        -0.871879
 H        -0.560201        -1.120697         0.028569
 H         2.410371         1.795887        -0.842123
 H         2.315941         1.776277         1.077283
 H         2.286318        -0.109605        -1.876787
 H         2.411010        -1.779969        -1.196532
 H         4.702301        -1.034145         2.705124
 H         4.795705         0.685953         2.510454
 H         2.127222        -1.826150         1.416857
