19
Iteration:  2830
 C        -0.162932        -0.043984        -0.014370
 C         1.376924         0.010860         0.110711
 C         2.338769         1.186286         0.154157
 C         3.244871        -0.125373         0.039029
 C         2.423618        -0.719796        -0.992246
 O         4.597568        -0.346270         0.645291
 C         4.203639        -0.027173         2.126640
 O         2.825770        -0.322247         2.362437
 C         2.273922        -0.807174         1.171197
 H        -0.730241         0.173470         0.908833
 H        -0.487463         0.549767        -0.790438
 H        -0.403147        -1.004688        -0.368021
 H         2.491848         1.917653        -0.597449
 H         2.267135         1.605396         1.118857
 H         2.418933        -0.284598        -2.074803
 H         2.753197        -1.729469        -0.878944
 H         4.901645        -0.713132         2.755668
 H         4.495570         0.972312         2.394419
 H         2.047148        -1.823373         1.476833
