19
Iteration:  4977
 C        -0.107461        -0.029073        -0.063694
 C         1.341456        -0.066476         0.074789
 C         2.395126         1.132542         0.104944
 C         3.221817        -0.221882         0.158306
 C         2.317315        -0.724363        -0.971084
 O         4.518208        -0.174076         0.719956
 C         4.291771        -0.155038         2.137230
 O         2.854030        -0.236287         2.322538
 C         2.317186        -0.750253         1.166309
 H        -0.637622         0.118754         0.953566
 H        -0.478960         0.690780        -0.864281
 H        -0.485881        -1.021151        -0.273201
 H         2.400723         1.692110        -0.839407
 H         2.495407         1.834161         1.040898
 H         2.421902        -0.300169        -1.911634
 H         2.279086        -1.788310        -1.174604
 H         4.702541        -1.121065         2.458951
 H         4.771222         0.747723         2.677447
 H         2.163090        -1.853196         1.186149
