19
Iteration:  2553charge 0 multiplicity 1
 C        -0.165420        -0.095208         0.000274
 C         1.419046         0.040426         0.149555
 C         2.442559         1.166927         0.122316
 C         3.211548        -0.166582         0.093433
 C         2.352166        -0.730077        -0.953753
 O         4.545545        -0.233600         0.593534
 C         4.215770        -0.196927         2.111899
 O         2.802978        -0.263412         2.416950
 C         2.345466        -0.719263         1.123158
 H        -0.744363         0.517474         0.657356
 H        -0.654254         0.084137        -1.011532
 H        -0.375629        -1.198925         0.185147
 H         2.439879         1.700368        -0.801903
 H         2.395863         1.834277         1.001345
 H         2.339831        -0.029425        -1.819517
 H         2.523760        -1.839514        -1.174466
 H         4.660208        -0.936880         2.861064
 H         4.634128         0.756123         2.245484
 H         2.265106        -1.869114         1.141384
