19
Iteration:  2048
 C        -0.111616        -0.032279         0.014900
 C         1.403287        -0.048588         0.040105
 C         2.418411         1.264055         0.057558
 C         3.204939        -0.145870         0.128538
 C         2.296214        -0.816960        -0.909385
 O         4.449462        -0.111018         0.653778
 C         4.272252        -0.352339         2.092972
 O         2.931525        -0.201129         2.362949
 C         2.308140        -0.770131         1.176611
 H        -0.493789         0.690399         0.763495
 H        -0.451028         0.220292        -0.988988
 H        -0.502118        -0.992648         0.288347
 H         2.500399         1.824873        -0.955066
 H         2.337719         1.856141         0.964818
 H         2.176106        -0.422113        -1.890578
 H         2.352750        -1.918994        -0.825269
 H         4.683262        -1.383083         2.263992
 H         4.787619         0.398072         2.707375
 H         1.929931        -1.788857         1.400333
