19
Iteration:  1101
 C        -0.153350         0.168187         0.139768
 C         1.344537        -0.097760         0.125116
 C         2.253515         1.081673         0.101543
 C         3.230510        -0.132537         0.100224
 C         2.461705        -0.793859        -0.957791
 O         4.559683         0.037549         0.617138
 C         4.340482        -0.300460         2.088984
 O         2.808694        -0.393050         2.351707
 C         2.310636        -0.832792         1.087347
 H        -0.331810         1.068027         0.895697
 H        -0.597407         0.678662        -0.756547
 H        -0.675404        -0.767835         0.317033
 H         2.226473         1.674541        -0.836580
 H         2.346186         1.702755         0.990264
 H         2.503473        -0.458338        -2.130326
 H         2.366927        -1.985005        -0.935457
 H         4.911232        -1.252383         2.078004
 H         4.569497         0.513116         2.815503
 H         2.244642        -1.936492         1.051247
