19
Iteration:  2195
 C        -0.116554         0.134484         0.001339
 C         1.325271        -0.050183         0.192091
 C         2.427344         1.117567         0.203427
 C         3.134417        -0.262024         0.195719
 C         2.354408        -0.843835        -1.031520
 O         4.583810        -0.200777         0.664541
 C         4.230047         0.009225         2.045557
 O         2.905931        -0.338703         2.252995
 C         2.277844        -0.850332         1.137327
 H        -0.634902         0.723194         0.756132
 H        -0.250737         0.680203        -0.938431
 H        -0.609444        -0.881513         0.057642
 H         2.558500         1.725788        -0.770417
 H         2.420873         1.789545         1.150231
 H         2.290632        -0.305245        -2.015554
 H         2.285572        -1.958629        -1.043877
 H         4.816410        -0.605366         2.629243
 H         4.398960         1.029382         2.542157
 H         2.211563        -1.975723         1.236080
