19
Iteration:  3724charge 0 multiplicity 1
 C        -0.106893         0.016195        -0.006622
 C         1.433248        -0.121410         0.116029
 C         2.279639         1.152895        -0.001813
 C         3.246629        -0.148584         0.160339
 C         2.387673        -0.814794        -0.956431
 O         4.552851         0.012281         0.734958
 C         4.236088        -0.324168         2.082536
 O         2.771833        -0.200044         2.366535
 C         2.381446        -0.825339         1.128296
 H        -0.389388         0.298199         1.002837
 H        -0.303658         0.804824        -0.788299
 H        -0.746805        -0.854499        -0.249106
 H         2.168856         1.675987        -0.946039
 H         2.438410         1.776965         0.877404
 H         2.217650        -0.437060        -1.951532
 H         2.208116        -1.901072        -1.194864
 H         4.618138        -1.291812         2.519012
 H         4.755336         0.374640         2.806637
 H         2.459035        -1.993045         1.247831
