19
Iteration:  4873charge 0 multiplicity 1
 C        -0.091053         0.029468        -0.000303
 C         1.365219        -0.067927         0.099430
 C         2.360900         1.090838         0.101516
 C         3.244850        -0.100787         0.150012
 C         2.368230        -0.858821        -1.014866
 O         4.532334        -0.007926         0.744932
 C         4.254835        -0.329132         2.072924
 O         2.822236        -0.208510         2.327912
 C         2.280912        -0.795514         1.112489
 H        -0.475442         0.956378         0.644711
 H        -0.492100        -0.016539        -1.065452
 H        -0.569154        -0.951103         0.439586
 H         2.319012         1.765209        -0.751591
 H         2.570047         1.634901         1.002759
 H         2.285860        -0.179610        -1.927914
 H         2.372650        -1.878593        -1.017929
 H         4.610417        -1.369506         2.525375
 H         4.709855         0.537638         2.761319
 H         2.501190        -1.987670         1.181271
