19
Iteration:    76charge 0 multiplicity 1
 C        -0.125395        -0.074705         0.001476
 C         1.385602         0.006353         0.126512
 C         2.332734         1.164062        -0.042273
 C         3.226855        -0.128467         0.130882
 C         2.332562        -0.791220        -0.993940
 O         4.489964        -0.039089         0.684591
 C         4.307463        -0.440302         2.051353
 O         2.890609        -0.226005         2.469881
 C         2.328138        -0.641757         1.204652
 H        -0.611163         0.509294         0.902434
 H        -0.526924         0.240603        -0.839845
 H        -0.358371        -1.133159         0.048225
 H         2.363120         1.768242        -0.961053
 H         2.353706         1.824340         0.823165
 H         2.379498        -0.303890        -1.950802
 H         2.059136        -1.842360        -1.062588
 H         4.461472        -1.488231         2.031597
 H         4.986422        -0.014179         2.762876
 H         2.264232        -1.776711         1.249327
