19
Iteration:  3433
 C        -0.141800        -0.020194         0.027462
 C         1.346640        -0.086403         0.021098
 C         2.267686         1.207048         0.101485
 C         3.213693        -0.118838         0.083637
 C         2.380440        -0.820095        -1.045015
 O         4.593979        -0.102622         0.751013
 C         4.273435        -0.250985         2.145297
 O         2.842827        -0.270457         2.387045
 C         2.298639        -0.771955         1.129463
 H        -0.474585         0.934406         0.597465
 H        -0.461150         0.108484        -1.023064
 H        -0.725786        -0.776651         0.417760
 H         2.458318         1.726373        -0.839767
 H         2.375855         1.797977         1.040064
 H         2.286304        -0.430552        -2.057065
 H         2.580783        -1.925032        -0.965326
 H         4.803308        -1.205503         2.431068
 H         4.880326         0.665057         2.627324
 H         2.533344        -1.928146         1.216973
