19
Iteration:  2903charge 0 multiplicity 1
 C        -0.065731         0.044422         0.006494
 C         1.427784        -0.105327         0.076895
 C         2.325209         1.116474         0.183001
 C         3.206783        -0.089075         0.152987
 C         2.398458        -0.764717        -0.981885
 O         4.523704        -0.158603         0.657635
 C         4.235048        -0.154970         2.124240
 O         2.791189        -0.302084         2.296758
 C         2.340982        -0.846720         1.114634
 H        -0.432573         0.822081         0.678997
 H        -0.488725         0.321887        -0.988340
 H        -0.727450        -0.828065         0.273658
 H         2.399634         1.656736        -0.778973
 H         2.242131         1.725881         1.084848
 H         2.322170        -0.279674        -1.913034
 H         2.498807        -1.850216        -0.993830
 H         4.784271        -0.887669         2.671077
 H         4.516788         0.841171         2.455592
 H         2.338505        -1.898021         1.333402
