19
Iteration:  1241charge 0 multiplicity 1
 C        -0.065610         0.154029         0.089699
 C         1.361294        -0.075306         0.127339
 C         2.433780         1.068835         0.210048
 C         3.237383        -0.214639         0.136014
 C         2.320873        -0.800290        -1.032521
 O         4.565995        -0.063804         0.561862
 C         4.261338        -0.009625         2.071591
 O         2.745226        -0.458891         2.352589
 C         2.311340        -0.931855         1.107428
 H        -0.079515         0.894651         0.997326
 H        -0.363301         0.863072        -0.699205
 H        -0.783367        -0.608630         0.160427
 H         2.357648         1.996455        -0.439206
 H         2.319503         1.552410         1.219907
 H         2.462130        -0.334502        -1.985012
 H         2.080505        -1.821900        -1.098818
 H         5.058231        -0.732021         2.414355
 H         4.319478         1.006998         2.496838
 H         2.237469        -2.101632         0.994800
