19
Iteration:  1047
 C        -0.179593        -0.116798         0.133281
 C         1.329901        -0.073566         0.062738
 C         2.330816         1.210605         0.089538
 C         3.224023        -0.101048         0.126568
 C         2.282935        -0.642154        -0.991846
 O         4.657734        -0.187276         0.677113
 C         4.251833        -0.406735         2.068587
 O         2.894990        -0.160123         2.338623
 C         2.321623        -0.708258         1.146182
 H        -0.660472         0.177433         1.069972
 H        -0.536543         0.456473        -0.685753
 H        -0.478840        -1.133444        -0.018488
 H         2.422164         1.782175        -0.844458
 H         2.347085         1.882243         0.923263
 H         2.324622        -0.074589        -2.013166
 H         2.411337        -1.773536        -1.145031
 H         4.510594        -1.440702         2.247957
 H         4.898783         0.225976         2.708519
 H         2.097832        -1.822878         1.099175
