19
Iteration:  3500
 C        -0.160742        -0.108272        -0.040367
 C         1.350439        -0.009050         0.040383
 C         2.302756         1.199063         0.185407
 C         3.216657        -0.193798         0.178130
 C         2.393782        -0.705173        -0.994836
 O         4.605047        -0.369238         0.706538
 C         4.227619        -0.036749         2.024338
 O         2.879221        -0.244518         2.376036
 C         2.327300        -0.774460         1.127036
 H        -0.432302         0.170666         1.018732
 H        -0.489543         0.757017        -0.650483
 H        -0.556054        -0.996037        -0.396005
 H         2.549160         1.768001        -0.712025
 H         2.203448         1.716393         1.134495
 H         2.494302        -0.129717        -1.971860
 H         2.272808        -1.779740        -1.064068
 H         4.837179        -0.594442         2.767110
 H         4.217868         1.071421         2.430582
 H         2.179121        -1.973060         1.094458
