19
Iteration:    73charge 0 multiplicity 1
 C        -0.099217        -0.082845        -0.004936
 C         1.389734         0.002809         0.119862
 C         2.333127         1.165017        -0.033331
 C         3.208058        -0.108418         0.125769
 C         2.311847        -0.789838        -0.956815
 O         4.510692        -0.037329         0.651448
 C         4.277278        -0.466074         2.073168
 O         2.871221        -0.209736         2.453962
 C         2.351998        -0.638036         1.227987
 H        -0.625166         0.440990         0.941445
 H        -0.569280         0.289857        -0.985949
 H        -0.229735        -1.172124         0.073059
 H         2.366496         1.869618        -0.885036
 H         2.327726         1.857470         0.778214
 H         2.342187        -0.346386        -1.926103
 H         2.051177        -1.878296        -1.072014
 H         4.497181        -1.619570         2.026697
 H         5.048999        -0.044034         2.767159
 H         2.320590        -1.764515         1.194242
