19
Iteration:  1467charge 0 multiplicity 1
 C        -0.154751        -0.139000         0.035861
 C         1.365727        -0.016525         0.066821
 C         2.375430         1.214663         0.097022
 C         3.196085        -0.043052         0.155579
 C         2.420352        -0.699932        -0.985185
 O         4.483360        -0.318625         0.696859
 C         4.285794        -0.345077         2.010481
 O         2.897915        -0.132915         2.377083
 C         2.301859        -0.685897         1.194105
 H        -0.655854         0.473136         0.836426
 H        -0.542563         0.299150        -0.939001
 H        -0.590655        -1.188477         0.280671
 H         2.491329         1.770909        -0.802842
 H         2.388974         1.824282         0.963268
 H         2.289997        -0.228220        -1.965501
 H         2.374448        -1.821054        -1.142844
 H         4.566589        -1.368852         2.239972
 H         4.794107         0.479730         2.495011
 H         2.213373        -1.775633         1.172228
