19
Iteration:  1396
 C        -0.147705         0.085985         0.133635
 C         1.303158        -0.021051         0.103786
 C         2.337961         1.109013        -0.009935
 C         3.262942        -0.168960         0.121881
 C         2.443443        -0.829852        -1.012682
 O         4.562799         0.001572         0.677434
 C         4.223410        -0.344389         2.112384
 O         2.910552        -0.295609         2.359414
 C         2.229411        -0.759346         1.139310
 H        -0.418357         0.599163         1.067583
 H        -0.505731         0.612376        -0.704972
 H        -0.559885        -0.868598         0.308829
 H         2.523878         1.670801        -0.943270
 H         2.194102         1.827816         0.893372
 H         2.469115        -0.534182        -2.076802
 H         2.455784        -1.871116        -1.020386
 H         4.579806        -1.366050         2.016161
 H         4.770017         0.357567         2.736656
 H         2.002403        -1.915485         1.285830
