19
Iteration:  4955
 C        -0.112822        -0.119021        -0.062998
 C         1.381088        -0.040490         0.129533
 C         2.412767         1.135321         0.193934
 C         3.267180        -0.120238         0.132146
 C         2.367250        -0.740858        -0.975667
 O         4.560715        -0.203058         0.602271
 C         4.222818        -0.287565         2.099278
 O         2.774729        -0.085409         2.359963
 C         2.298518        -0.728546         1.177902
 H        -0.766481         0.059741         0.914177
 H        -0.486719         0.648260        -0.818032
 H        -0.380835        -1.121857        -0.367927
 H         2.594472         1.853399        -0.625429
 H         2.262269         1.720031         1.190736
 H         2.404603        -0.546181        -2.003977
 H         2.356071        -1.864505        -0.930839
 H         4.542436        -1.327809         2.334954
 H         4.899966         0.485068         2.587349
 H         2.079714        -1.806466         1.206270
