19
Iteration:  3769
 C        -0.117891        -0.113285        -0.009052
 C         1.351985        -0.033298         0.051792
 C         2.354138         1.186105         0.107699
 C         3.232504        -0.077568         0.103055
 C         2.380949        -0.686371        -1.002772
 O         4.571972        -0.207514         0.707288
 C         4.285565        -0.262136         2.098839
 O         2.773207        -0.202158         2.379218
 C         2.287569        -0.751436         1.192072
 H        -0.540539         0.555175         0.668185
 H        -0.399217        -0.020743        -1.063577
 H        -0.385296        -1.158806         0.341408
 H         2.353522         1.667819        -0.868894
 H         2.287006         1.915456         0.920689
 H         2.464891        -0.503616        -2.064205
 H         2.482619        -1.761047        -0.932295
 H         4.753349        -1.235059         2.537735
 H         4.831570         0.541273         2.680825
 H         2.241631        -1.924039         1.111928
