19
Iteration:  1598charge 0 multiplicity 1
 C        -0.093539        -0.033927         0.153438
 C         1.424600         0.002005         0.059927
 C         2.511909         1.143930         0.151545
 C         3.229102        -0.247470         0.144420
 C         2.295973        -0.691657        -1.018301
 O         4.438711        -0.357333         0.651449
 C         4.213237         0.053562         2.128140
 O         2.862083        -0.322772         2.322768
 C         2.259783        -0.763694         1.050831
 H        -0.499963         0.557764         0.979218
 H        -0.391291         0.238028        -0.869746
 H        -0.479068        -1.070278         0.081719
 H         2.694785         1.695201        -0.749435
 H         2.659277         1.788201         1.039940
 H         2.349567        -0.173159        -1.951301
 H         2.090764        -1.753914        -1.237769
 H         4.937620        -0.483628         2.795653
 H         4.541143         1.179043         2.321299
 H         2.101830        -2.000165         1.174993
