19
Iteration:  4017
 C        -0.144866        -0.068897         0.014151
 C         1.363801        -0.054125         0.094166
 C         2.335688         1.088245         0.032274
 C         3.271976        -0.115035         0.115857
 C         2.433178        -0.778381        -1.015713
 O         4.522996        -0.024221         0.701002
 C         4.256984        -0.396686         2.143225
 O         2.782345        -0.123122         2.421344
 C         2.351092        -0.760024         1.143885
 H        -0.511588         0.442475         0.876302
 H        -0.572040         0.599307        -0.778239
 H        -0.583298        -1.022007         0.027146
 H         2.269975         1.532209        -0.992552
 H         2.361719         1.801116         0.897586
 H         2.606028        -0.272176        -1.951052
 H         2.398596        -1.924142        -1.093117
 H         4.423899        -1.541294         2.089460
 H         4.915336         0.352294         2.737862
 H         2.304662        -1.921549         1.113815
