19
Iteration:  1486charge 0 multiplicity 1
 C        -0.113299        -0.032228        -0.046998
 C         1.371581        -0.037892         0.117200
 C         2.285785         1.179695         0.075532
 C         3.223069        -0.171889         0.152814
 C         2.283129        -0.675625        -0.962393
 O         4.589534        -0.265876         0.530814
 C         4.365003        -0.280516         2.185561
 O         2.862948        -0.204506         2.438645
 C         2.282573        -0.690176         1.179134
 H        -0.559358         0.326898         0.804452
 H        -0.459821         0.464360        -0.950773
 H        -0.589424        -1.046954         0.006216
 H         2.315509         1.743743        -0.876998
 H         2.216967         1.738583         0.957691
 H         2.492397        -0.333788        -1.942286
 H         2.213856        -1.735606        -1.125650
 H         4.693619        -1.251743         2.614249
 H         4.834892         0.658010         2.600026
 H         2.144895        -1.873222         1.205558
