19
Iteration:  1114charge 0 multiplicity 1
 C        -0.167412         0.153791         0.126061
 C         1.332677        -0.105151         0.075228
 C         2.267335         1.097334         0.127448
 C         3.208742        -0.101134         0.125209
 C         2.427921        -0.782289        -1.077304
 O         4.508336        -0.068326         0.651256
 C         4.253243        -0.273920         2.083813
 O         2.931486        -0.342778         2.361027
 C         2.354944        -0.827794         1.139274
 H        -0.409143         0.832009         0.912987
 H        -0.387438         0.484536        -0.844825
 H        -0.834070        -0.695959         0.427334
 H         2.263278         1.783406        -0.664722
 H         2.195189         1.667780         1.102085
 H         2.524845        -0.201784        -2.095520
 H         2.576605        -1.929491        -1.132842
 H         4.663273        -1.201019         2.476051
 H         4.813865         0.558560         2.554445
 H         2.341064        -1.993278         1.082704
