19
Iteration:  1591
 C        -0.040707        -0.038604         0.140907
 C         1.414334         0.044851         0.048196
 C         2.463564         1.095357         0.167014
 C         3.219138        -0.212094         0.082607
 C         2.299872        -0.676279        -1.008084
 O         4.502239        -0.408920         0.634909
 C         4.159065         0.108332         2.155825
 O         2.874785        -0.329314         2.312429
 C         2.244391        -0.808305         1.108181
 H        -0.511900         0.656849         0.954358
 H        -0.598147         0.397468        -0.734106
 H        -0.288132        -1.086763         0.227159
 H         2.646216         1.637900        -0.756074
 H         2.775185         1.717299         1.032734
 H         2.372022        -0.089187        -1.968959
 H         2.118491        -1.735564        -0.992504
 H         4.762510        -0.492641         2.805032
 H         4.344581         1.137530         2.209945
 H         2.143876        -1.844945         0.939974
