19
Iteration:  2389
 C        -0.149309        -0.029455         0.013060
 C         1.350470        -0.026891         0.048976
 C         2.337053         1.159525         0.195003
 C         3.224673        -0.211947         0.135655
 C         2.326040        -0.793730        -1.009940
 O         4.562225        -0.194383         0.675815
 C         4.327693        -0.218065         2.125165
 O         2.866609        -0.115070         2.365314
 C         2.303070        -0.824380         1.087478
 H        -0.438227         0.780202         0.701518
 H        -0.585360         0.228300        -1.029697
 H        -0.570426        -1.100843         0.193155
 H         2.351313         1.801398        -0.665321
 H         2.437336         1.849446         1.027025
 H         2.419303        -0.350879        -2.022750
 H         2.219904        -1.868513        -1.063221
 H         4.808859        -1.185972         2.523217
 H         4.678632         0.725643         2.600077
 H         2.097221        -1.927074         1.147435
