19
Iteration:  4666
 C        -0.108543        -0.075956         0.027481
 C         1.421837        -0.010811         0.050434
 C         2.326956         1.239073         0.167295
 C         3.245710        -0.137034         0.212382
 C         2.398852        -0.744767        -1.067443
 O         4.501694        -0.343940         0.637837
 C         4.259371        -0.102300         2.134017
 O         2.843523        -0.230466         2.359299
 C         2.277781        -0.784346         1.131104
 H        -0.606056         0.625147         0.738528
 H        -0.353511         0.029103        -1.005937
 H        -0.539732        -1.179057         0.047675
 H         2.241967         1.770167        -0.890928
 H         2.195377         1.650210         1.274372
 H         2.594777        -0.051298        -2.103104
 H         2.494925        -1.853902        -1.090135
 H         4.729057        -0.853231         2.668612
 H         4.660747         0.926878         2.514489
 H         2.109590        -1.824652         1.242725
