19
Iteration:  4208charge 0 multiplicity 1
 C        -0.072666        -0.019321         0.082088
 C         1.437975        -0.138069         0.087082
 C         2.401247         1.082990         0.089268
 C         3.237230        -0.119444         0.133440
 C         2.299395        -0.706706        -1.095911
 O         4.582734        -0.301927         0.712570
 C         4.173816        -0.006140         2.126599
 O         2.748484        -0.280726         2.342555
 C         2.315412        -0.762816         1.132378
 H        -0.554927         0.212563         1.012945
 H        -0.252097         0.694392        -0.629139
 H        -0.309107        -1.058660        -0.203440
 H         2.594387         1.607198        -0.834741
 H         2.405653         1.737274         0.937026
 H         2.247828         0.038833        -1.914844
 H         2.456079        -1.762719        -1.011659
 H         4.827378        -0.656727         2.762115
 H         4.396254         1.059030         2.331616
 H         2.290074        -1.865021         1.221430
