19
Iteration:  4052
 C        -0.122732        -0.146778         0.074936
 C         1.395202        -0.021590        -0.017468
 C         2.358598         1.150282         0.071125
 C         3.305455        -0.088461         0.118248
 C         2.356983        -0.755375        -0.953046
 O         4.533057        -0.121329         0.689939
 C         4.204126        -0.364737         2.190404
 O         2.806684        -0.099836         2.376262
 C         2.331791        -0.709788         1.045657
 H        -0.352576        -0.003460         1.062853
 H        -0.723023         0.491961        -0.633845
 H        -0.379561        -1.237765        -0.187904
 H         2.382359         1.722255        -0.870933
 H         2.363841         1.870366         0.905906
 H         2.574019        -0.375910        -2.032687
 H         2.191837        -1.926407        -1.034840
 H         4.283150        -1.404549         2.556452
 H         4.939456         0.167333         2.856207
 H         2.245670        -1.854784         1.173214
