19
Iteration:  3206
 C        -0.150251        -0.028862        -0.025326
 C         1.413017        -0.080412         0.071039
 C         2.366713         1.102189         0.174640
 C         3.181792        -0.217380         0.136755
 C         2.299249        -0.692408        -1.094493
 O         4.614527        -0.229658         0.707907
 C         4.275329         0.042486         2.104642
 O         2.829549        -0.341583         2.381876
 C         2.262258        -0.834106         1.130649
 H        -0.224548         0.520700         0.926955
 H        -0.357812         0.536065        -0.964014
 H        -0.656371        -0.977928         0.040864
 H         2.516297         1.714158        -0.732890
 H         2.525481         1.756814         1.040796
 H         2.550653        -0.034778        -1.925837
 H         2.299161        -1.812448        -1.142065
 H         4.841943        -0.587262         2.754335
 H         4.348543         1.080840         2.446215
 H         2.186262        -1.906542         1.356494
