19
Iteration:  2878charge 0 multiplicity 1
 C        -0.186454        -0.025191        -0.018646
 C         1.388485        -0.019910         0.067008
 C         2.388659         1.138536         0.171932
 C         3.249472        -0.216428         0.123936
 C         2.353052        -0.772704        -1.102453
 O         4.597679        -0.150611         0.694384
 C         4.257749        -0.085825         2.152676
 O         2.842484        -0.330765         2.433013
 C         2.276353        -0.811997         1.075521
 H        -0.605346         0.622240         0.790429
 H        -0.622540         0.412512        -1.003334
 H        -0.788374        -0.930206         0.120583
 H         2.442873         1.724840        -0.797362
 H         2.380169         1.773862         1.132018
 H         2.521164        -0.166948        -1.950387
 H         2.033423        -1.829754        -1.250420
 H         4.830521        -0.813751         2.729508
 H         4.617592         0.933364         2.425079
 H         2.338362        -1.849850         1.340524
