19
Iteration:  1955
 C        -0.117924         0.067463         0.093932
 C         1.402756        -0.029512         0.085687
 C         2.377865         1.088669         0.022162
 C         3.262468        -0.218961         0.144956
 C         2.257970        -0.769055        -0.977805
 O         4.512135        -0.114190         0.661172
 C         4.296676        -0.234334         2.131480
 O         2.834865        -0.220855         2.353367
 C         2.315451        -0.804966         1.149908
 H        -0.612699         0.407414         0.975491
 H        -0.429308         0.600547        -0.816466
 H        -0.478275        -0.980170        -0.082869
 H         2.551248         1.508651        -0.921182
 H         2.490772         1.751763         0.849947
 H         2.412465        -0.165181        -1.895917
 H         2.196924        -1.850746        -1.129155
 H         4.766586        -1.244430         2.556613
 H         4.759346         0.704264         2.523561
 H         2.159963        -1.901433         1.119036
