19
Iteration:  1685
 C        -0.192381        -0.047382        -0.022643
 C         1.292261        -0.031602         0.074608
 C         2.408119         1.132442         0.045412
 C         3.263608        -0.160334         0.125050
 C         2.322291        -0.788053        -0.930351
 O         4.608495        -0.071698         0.660594
 C         4.181056        -0.390644         2.065872
 O         2.921412        -0.149609         2.373651
 C         2.320736        -0.711529         1.236098
 H        -0.631506         0.516515         0.788124
 H        -0.562614         0.531133        -0.889547
 H        -0.511783        -1.092382        -0.110229
 H         2.482684         1.774657        -0.855870
 H         2.581461         1.748063         1.009838
 H         2.181415        -0.307440        -1.894736
 H         2.157102        -1.862974        -0.896921
 H         4.440593        -1.484541         2.130115
 H         4.913483         0.128472         2.809403
 H         2.240957        -1.777424         1.446621
