19
Iteration:  1060
 C        -0.157423        -0.043595         0.121146
 C         1.372541         0.006900         0.110107
 C         2.325240         1.161999         0.010493
 C         3.307374        -0.119407         0.103571
 C         2.256445        -0.740726        -1.078661
 O         4.513738        -0.049776         0.688182
 C         4.337974        -0.437528         2.184821
 O         2.899053        -0.241058         2.383403
 C         2.336098        -0.748531         1.075853
 H        -0.406268         0.378786         1.029152
 H        -0.625469         0.487290        -0.640100
 H        -0.582054        -1.091157         0.070779
 H         2.238028         1.672889        -0.908270
 H         2.296295         1.799784         0.929405
 H         2.214901        -0.088181        -1.963969
 H         2.005708        -1.763166        -1.316744
 H         4.617124        -1.465944         2.441547
 H         4.904584         0.315582         2.743157
 H         2.312588        -1.876371         1.354130
