19
Iteration:  1302charge 0 multiplicity 1
 C        -0.104896        -0.110571         0.036000
 C         1.401592         0.101092         0.134645
 C         2.326754         1.232833         0.166018
 C         3.225468        -0.169315         0.090722
 C         2.344039        -0.622020        -0.981277
 O         4.522585        -0.457442         0.636483
 C         4.292328        -0.086969         2.095685
 O         2.905411        -0.334437         2.338302
 C         2.250308        -0.703084         1.122721
 H        -0.507217         0.327547         0.916854
 H        -0.591465         0.331429        -0.881100
 H        -0.363681        -1.222592         0.252175
 H         2.282471         1.913434        -0.697766
 H         2.290195         1.657645         1.120020
 H         2.400593        -0.075235        -1.941317
 H         2.392103        -1.799401        -1.179588
 H         4.927245        -0.804766         2.623331
 H         4.429173         1.002511         2.357998
 H         1.982951        -1.714792         1.070307
