19
Iteration:  4106
 C        -0.173098        -0.035529        -0.089566
 C         1.405425        -0.031422         0.038934
 C         2.381255         1.164319         0.204064
 C         3.157394        -0.158174         0.105293
 C         2.384351        -0.785321        -1.036521
 O         4.555283        -0.181623         0.642458
 C         4.264839        -0.121340         2.098891
 O         2.837716        -0.266644         2.424998
 C         2.305886        -0.793553         1.234059
 H        -0.458893         0.603696         0.626786
 H        -0.396118         0.328585        -1.103358
 H        -0.544612        -1.032875         0.038376
 H         2.576739         1.787562        -0.669279
 H         2.263565         1.511961         1.240678
 H         2.456791        -0.387530        -1.992861
 H         2.386564        -1.882651        -1.116575
 H         4.755250        -0.952536         2.622670
 H         4.579734         0.915756         2.464944
 H         2.292551        -1.928481         1.361691
