19
Iteration:  4677charge 0 multiplicity 1
 C        -0.113832        -0.082570         0.008083
 C         1.387136        -0.041328         0.043698
 C         2.361720         1.178653         0.131722
 C         3.226456        -0.100044         0.162493
 C         2.408037        -0.704458        -0.950475
 O         4.511780        -0.330879         0.691448
 C         4.234632        -0.103532         2.109547
 O         2.843784        -0.312359         2.318047
 C         2.295642        -0.731086         1.125656
 H        -0.608602         0.667263         0.667790
 H        -0.494192         0.174467        -0.957715
 H        -0.410857        -1.082252         0.463622
 H         2.453600         1.973032        -0.710167
 H         2.229234         1.831293         1.084213
 H         2.620678        -0.291724        -2.039734
 H         2.262223        -1.791573        -1.061166
 H         4.844419        -0.739445         2.680730
 H         4.378729         1.004541         2.340206
 H         2.351874        -1.792284         1.024837
