19
Iteration:  1649charge 0 multiplicity 1
 C        -0.131326         0.070496        -0.045463
 C         1.414204        -0.077858         0.105654
 C         2.284547         1.129597         0.090690
 C         3.152689        -0.107537         0.083954
 C         2.348147        -0.807820        -0.945627
 O         4.466677        -0.191302         0.724754
 C         4.313581        -0.259456         2.048475
 O         2.949249        -0.209835         2.352760
 C         2.328914        -0.776845         1.238879
 H        -0.487570         0.532180         0.855475
 H        -0.235498         0.678029        -0.971021
 H        -0.781696        -0.873539        -0.143287
 H         2.346401         1.789002        -0.899306
 H         2.350442         1.680685         1.027649
 H         2.305847        -0.397346        -1.969592
 H         2.404190        -1.936462        -1.060479
 H         4.699624        -1.252659         2.436461
 H         4.704784         0.614108         2.538577
 H         2.423385        -1.803499         1.243838
