19
Iteration:  2829
 C        -0.164432        -0.038522        -0.015326
 C         1.375065         0.010823         0.110702
 C         2.343514         1.183866         0.154734
 C         3.248438        -0.127224         0.040132
 C         2.421650        -0.716490        -0.987920
 O         4.597768        -0.344282         0.652426
 C         4.204885        -0.019959         2.122248
 O         2.831074        -0.319727         2.356982
 C         2.264834        -0.818703         1.170482
 H        -0.723256         0.156868         0.879849
 H        -0.503632         0.553631        -0.768297
 H        -0.417838        -1.024530        -0.356319
 H         2.491409         1.910167        -0.586979
 H         2.245667         1.562486         1.114810
 H         2.428313        -0.284705        -2.048221
 H         2.750595        -1.742581        -0.894847
 H         4.860735        -0.735115         2.733292
 H         4.514408         0.971967         2.392967
 H         2.078686        -1.778150         1.452817
