19
Iteration:  4453
 C        -0.100922         0.087274        -0.046441
 C         1.411892        -0.082485         0.084344
 C         2.394101         1.049733         0.187235
 C         3.215873        -0.226690         0.231209
 C         2.336400        -0.744736        -0.987252
 O         4.531905        -0.218130         0.652311
 C         4.298404         0.122803         2.037659
 O         2.767843        -0.349297         2.378958
 C         2.318495        -0.918092         1.156624
 H        -0.451981         0.537114         0.904707
 H        -0.235971         0.765165        -0.955996
 H        -0.552380        -0.805422        -0.425985
 H         2.568520         1.565182        -0.756569
 H         2.321292         1.679321         1.102024
 H         2.360680        -0.201636        -1.946144
 H         2.057683        -1.863418        -1.291551
 H         4.984913        -0.525048         2.595320
 H         4.249588         1.146187         2.396983
 H         2.323579        -2.024308         1.135092
