19
Iteration:  4330
 C        -0.085380        -0.082522        -0.024083
 C         1.425208        -0.080671         0.114695
 C         2.254838         1.207359         0.072739
 C         3.205375        -0.086754         0.068481
 C         2.507432        -0.815465        -0.965035
 O         4.534611        -0.130394         0.674583
 C         4.276774        -0.335450         2.054174
 O         2.808949        -0.174739         2.418086
 C         2.215104        -0.704047         1.209698
 H        -0.361175         0.964023         0.403803
 H        -0.180811        -0.042685        -1.077951
 H        -0.569162        -0.985131         0.427959
 H         2.199784         1.954076        -0.659654
 H         2.339975         1.765039         0.985561
 H         2.354631        -0.486022        -2.107228
 H         2.431326        -1.917289        -0.998638
 H         4.595513        -1.441600         2.294168
 H         4.849787         0.312160         2.705793
 H         2.163025        -1.804167         1.390822
