19
Iteration:  2818
 C        -0.160960        -0.028163        -0.042472
 C         1.356479        -0.055175         0.071834
 C         2.388893         1.129439         0.204292
 C         3.280972        -0.158143         0.192870
 C         2.400480        -0.731368        -0.984259
 O         4.542308        -0.288096         0.712623
 C         4.256982        -0.026835         2.053141
 O         2.850121        -0.269265         2.331408
 C         2.261433        -0.804560         1.110098
 H        -0.581046         0.196121         0.932002
 H        -0.541729         0.664755        -0.698187
 H        -0.497875        -1.024963        -0.265086
 H         2.375182         1.802162        -0.616670
 H         2.357650         1.648588         1.120324
 H         2.463199        -0.181464        -1.979837
 H         2.200486        -1.779703        -1.202352
 H         4.801312        -0.807002         2.662705
 H         4.458544         1.005530         2.305904
 H         2.191073        -1.856175         0.986107
