19
Iteration:  3733charge 0 multiplicity 1
 C        -0.090877        -0.013784         0.035372
 C         1.383223        -0.133272         0.052730
 C         2.282068         1.094347         0.028176
 C         3.244616        -0.130323         0.122502
 C         2.403965        -0.789999        -1.053603
 O         4.566241        -0.009535         0.762988
 C         4.300515        -0.320013         2.119522
 O         2.809040        -0.204896         2.381626
 C         2.275079        -0.768107         1.160870
 H        -0.548526         0.579929         0.933402
 H        -0.433916         0.828601        -0.803889
 H        -0.684812        -0.917674        -0.194846
 H         2.255531         1.554813        -0.961041
 H         2.362236         1.749739         0.918374
 H         2.255372        -0.295594        -2.020913
 H         2.524970        -1.913763        -0.870817
 H         4.643060        -1.382722         2.346620
 H         4.666436         0.535505         2.729179
 H         2.288126        -1.910718         1.239748
