19
Iteration:  3860charge 0 multiplicity 1
 C        -0.125947         0.089578        -0.006204
 C         1.384327        -0.182313         0.109906
 C         2.362556         1.106159         0.060191
 C         3.243674        -0.191796         0.117175
 C         2.297336        -0.788584        -0.973590
 O         4.597632        -0.151995         0.750159
 C         4.251534        -0.001273         2.106304
 O         2.760811        -0.389202         2.330417
 C         2.360343        -0.790384         1.110998
 H        -0.403839         0.293693         1.060642
 H        -0.314937         0.882159        -0.601947
 H        -0.694800        -0.758346        -0.267694
 H         2.313436         1.870565        -0.757560
 H         2.375262         1.687433         1.017955
 H         2.404319        -0.222718        -1.930037
 H         2.436885        -1.810595        -0.949399
 H         5.001403        -0.663454         2.686957
 H         4.435006         1.085485         2.400235
 H         2.338096        -1.954289         0.967619
