19
Iteration:  1602
 C        -0.115912        -0.037078         0.120491
 C         1.394299        -0.013528         0.089812
 C         2.535354         1.172280         0.125739
 C         3.242122        -0.255688         0.160467
 C         2.293357        -0.708736        -1.032741
 O         4.452444        -0.326402         0.678317
 C         4.251544         0.013057         2.088089
 O         2.841896        -0.313730         2.344159
 C         2.276808        -0.774714         1.062110
 H        -0.545104         0.529980         1.038621
 H        -0.381609         0.317084        -0.896774
 H        -0.533725        -1.038771         0.181951
 H         2.670473         1.769248        -0.765713
 H         2.498218         1.773004         1.068853
 H         2.371858        -0.159470        -2.017340
 H         2.121738        -1.731802        -1.313707
 H         4.949862        -0.548909         2.680229
 H         4.426631         1.045962         2.248525
 H         2.093771        -1.813507         1.261589
