19
Iteration:  4329
 C        -0.083538        -0.078827        -0.032054
 C         1.425184        -0.082787         0.112332
 C         2.252792         1.219867         0.076349
 C         3.208293        -0.086901         0.069639
 C         2.507523        -0.826990        -0.968079
 O         4.531223        -0.125396         0.674727
 C         4.281419        -0.339273         2.047307
 O         2.812397        -0.176688         2.419107
 C         2.212592        -0.705440         1.217495
 H        -0.373405         0.950525         0.401224
 H        -0.204448        -0.037552        -1.091814
 H        -0.535256        -0.993097         0.468032
 H         2.198960         1.949621        -0.699793
 H         2.333792         1.753524         0.982575
 H         2.346846        -0.458107        -2.075239
 H         2.439413        -1.895832        -0.956733
 H         4.549108        -1.426444         2.301588
 H         4.843665         0.279984         2.720246
 H         2.164720        -1.819253         1.387568
