19
Iteration:  2711
 C        -0.179066        -0.086543        -0.064949
 C         1.367289        -0.020407         0.117286
 C         2.419160         1.128562         0.207647
 C         3.261257        -0.147913         0.123035
 C         2.306995        -0.693290        -0.992521
 O         4.522614        -0.251822         0.707183
 C         4.259693        -0.180242         2.088181
 O         2.787748        -0.212244         2.352280
 C         2.376322        -0.774651         1.116088
 H        -0.549352         0.500545         0.870932
 H        -0.425413         0.173636        -1.116391
 H        -0.615702        -1.096045         0.125713
 H         2.569024         1.716803        -0.726265
 H         2.521805         1.846581         1.022189
 H         2.540044        -0.183711        -1.980628
 H         2.288391        -1.743922        -1.054386
 H         4.966536        -0.772594         2.667332
 H         4.513779         0.848829         2.329757
 H         2.394204        -1.915390         0.989670
