19
Iteration:  2772charge 0 multiplicity 1
 C        -0.157094         0.032289         0.046992
 C         1.313929        -0.062489         0.058875
 C         2.354642         1.106437         0.134262
 C         3.290776        -0.176412         0.091734
 C         2.400786        -0.748356        -0.962074
 O         4.548257        -0.167271         0.703532
 C         4.257184        -0.080279         2.154531
 O         2.809348        -0.355585         2.303535
 C         2.333609        -0.809972         1.094719
 H        -0.456389         0.678513         0.804957
 H        -0.379335         0.638471        -0.827540
 H        -0.734753        -0.914191         0.076842
 H         2.546819         1.739272        -0.743050
 H         2.382119         1.749990         1.034124
 H         2.532431        -0.421853        -1.995186
 H         2.403865        -1.897617        -0.998982
 H         4.906276        -0.785472         2.746562
 H         4.277417         0.973601         2.464017
 H         2.187280        -1.878217         1.108653
