19
Iteration:  3146
 C        -0.118052        -0.031635        -0.044266
 C         1.313270        -0.085064         0.066581
 C         2.405635         1.108445         0.057001
 C         3.187821        -0.140166         0.156744
 C         2.326683        -0.730409        -1.026166
 O         4.527695        -0.175433         0.699466
 C         4.269937        -0.123489         2.178309
 O         2.893543        -0.265429         2.399190
 C         2.327100        -0.796297         1.166091
 H        -0.719353         0.228866         0.865802
 H        -0.606074         0.709429        -0.701736
 H        -0.530358        -1.068365        -0.337559
 H         2.382522         1.811842        -0.824216
 H         2.560713         1.611070         1.064991
 H         2.443885        -0.211704        -2.015287
 H         2.365694        -1.764037        -1.271077
 H         4.915073        -0.995716         2.537355
 H         4.595774         0.857236         2.612034
 H         2.218211        -1.884644         1.057773
