19
Iteration:  1988
 C        -0.175205        -0.037888         0.107829
 C         1.441590        -0.069519         0.046003
 C         2.299248         1.184865         0.104120
 C         3.215370        -0.075609         0.109891
 C         2.424169        -0.799418        -0.942863
 O         4.472387        -0.276227         0.676598
 C         4.299071        -0.393106         2.045672
 O         2.832069        -0.038851         2.348752
 C         2.344726        -0.682343         1.114786
 H        -0.752208         0.320280         0.929046
 H        -0.650358         0.565566        -0.683377
 H        -0.474404        -1.099103        -0.109744
 H         2.454247         1.822686        -0.686564
 H         2.269683         1.723052         1.039338
 H         2.422698        -0.335234        -1.971914
 H         2.634635        -1.869919        -1.062579
 H         4.626890        -1.507866         2.524407
 H         5.003192         0.339995         2.570906
 H         2.317986        -1.775524         1.231046
