19
Iteration:  1428
 C        -0.105833        -0.091753         0.130154
 C         1.396383        -0.112825         0.111474
 C         2.411593         1.155756         0.021512
 C         3.307884        -0.078410         0.102459
 C         2.216667        -0.720132        -1.039593
 O         4.610538        -0.171216         0.655626
 C         4.170857        -0.349284         2.121309
 O         2.802200        -0.151485         2.386541
 C         2.344288        -0.693090         1.110579
 H        -0.388227         0.755845         0.789006
 H        -0.508541         0.202013        -0.814910
 H        -0.457882        -1.014670         0.412294
 H         2.586876         1.832069        -0.862751
 H         2.307694         1.810316         1.002761
 H         2.159855        -0.137448        -1.994774
 H         2.204769        -1.781952        -1.002371
 H         4.294264        -1.475130         2.262402
 H         4.839744         0.151084         2.837151
 H         2.371577        -1.837972         1.213031
