19
Iteration:  1993
 C        -0.109228        -0.066004         0.079767
 C         1.399223        -0.077069         0.041042
 C         2.303330         1.151250         0.091802
 C         3.157557        -0.064868         0.134362
 C         2.415134        -0.747311        -0.940492
 O         4.462763        -0.284911         0.683532
 C         4.292138        -0.437728         2.072410
 O         2.872112        -0.030362         2.347772
 C         2.364185        -0.648589         1.098411
 H        -0.570093         0.327512         1.058071
 H        -0.554642         0.494585        -0.749811
 H        -0.396991        -1.086084        -0.080742
 H         2.359756         1.849142        -0.851223
 H         2.262658         1.796125         1.004821
 H         2.459233        -0.317487        -1.921744
 H         2.274128        -1.862652        -0.988560
 H         4.590599        -1.373287         2.403361
 H         4.785748         0.337261         2.625202
 H         2.476417        -1.771922         1.283661
