19
Iteration:  3450charge 0 multiplicity 1
 C        -0.170610         0.042778        -0.041577
 C         1.393645        -0.077396         0.090520
 C         2.319539         1.095534         0.092261
 C         3.305151        -0.131237         0.183390
 C         2.322207        -0.774066        -0.926471
 O         4.558752        -0.083066         0.649401
 C         4.279715        -0.182335         2.167822
 O         2.845214        -0.304194         2.320274
 C         2.339253        -0.806230         1.104794
 H        -0.487333         0.835408         0.561731
 H        -0.547598         0.235924        -1.048083
 H        -0.475105        -1.059911         0.229388
 H         2.249064         1.716272        -0.816666
 H         2.213649         1.589049         1.065240
 H         2.462163        -0.363510        -1.947557
 H         2.179680        -1.872578        -0.934112
 H         4.727713        -1.049506         2.636968
 H         4.544964         0.633563         2.730333
 H         2.121386        -1.812440         1.170623
