19
Iteration:  4354charge 0 multiplicity 1
 C        -0.225755        -0.027440        -0.035387
 C         1.399251        -0.106912         0.047062
 C         2.351098         1.148377         0.106395
 C         3.251588        -0.152950         0.129552
 C         2.359191        -0.721844        -0.943941
 O         4.572300        -0.199907         0.706829
 C         4.238886        -0.177512         2.172250
 O         2.846305        -0.177816         2.316036
 C         2.343488        -0.827468         1.128221
 H        -0.537732         0.674198         0.779154
 H        -0.631426         0.188076        -1.024614
 H        -0.360130        -1.022965         0.303709
 H         2.485324         1.704714        -0.806308
 H         2.297553         1.967187         0.869826
 H         2.250094        -0.126244        -1.931055
 H         2.303806        -1.844271        -1.269506
 H         4.565811        -1.185643         2.655268
 H         4.736882         0.633780         2.754701
 H         2.493895        -1.897130         1.265826
