19
Iteration:  4917
 C        -0.185548        -0.103349         0.032677
 C         1.363353        -0.073976         0.056496
 C         2.309703         1.176918        -0.014956
 C         3.216048        -0.071649         0.157322
 C         2.380718        -0.712816        -1.045392
 O         4.522289        -0.164807         0.756613
 C         4.334020        -0.389615         2.168140
 O         2.897240        -0.189551         2.389934
 C         2.297672        -0.652868         1.111003
 H        -0.663249         0.533595         0.811519
 H        -0.492552         0.301839        -0.936620
 H        -0.443176        -1.210978        -0.085505
 H         2.494712         1.590645        -0.991153
 H         2.118239         1.981602         0.627378
 H         2.362066        -0.208002        -2.060101
 H         2.607911        -1.703522        -0.886121
 H         4.503054        -1.473990         2.462006
 H         4.946594         0.169494         2.927846
 H         2.177036        -1.717370         1.419211
