19
Iteration:  1150
 C        -0.159989        -0.155636         0.038484
 C         1.391804         0.089957         0.218542
 C         2.386742         1.217104         0.216629
 C         3.256563        -0.162555         0.124857
 C         2.273473        -0.610672        -1.029053
 O         4.606762        -0.338713         0.600967
 C         4.239829        -0.205910         2.049958
 O         2.864348        -0.251235         2.335780
 C         2.301022        -0.754279         1.139062
 H        -0.776901         0.314498         0.725568
 H        -0.490736         0.250858        -0.924015
 H        -0.322978        -1.220501        -0.065748
 H         2.418889         1.825414        -0.713679
 H         2.370415         1.731864         1.185812
 H         2.327293        -0.058271        -1.912392
 H         2.154608        -1.642085        -1.241759
 H         4.730025        -0.987554         2.632095
 H         4.641472         0.778191         2.326312
 H         2.055840        -1.913266         1.112843
