19
Iteration:  4715
 C        -0.083789         0.022807         0.023183
 C         1.368831        -0.045381         0.071208
 C         2.405333         1.087744         0.076527
 C         3.218946        -0.234404         0.116733
 C         2.302731        -0.709329        -0.987824
 O         4.524399        -0.151864         0.751177
 C         4.156650         0.011590         2.131453
 O         2.893816        -0.408070         2.343728
 C         2.342929        -0.837365         1.090140
 H        -0.374936         0.773213         0.776078
 H        -0.407765         0.473565        -1.028972
 H        -0.581520        -0.890130         0.297807
 H         2.662324         1.552132        -0.884863
 H         2.500183         1.602180         0.984151
 H         2.448278        -0.098728        -1.896490
 H         2.060005        -1.809409        -1.210886
 H         4.899902        -0.631025         2.842442
 H         4.216887         1.053368         2.392311
 H         2.259795        -1.964550         1.167747
