19
Iteration:   379
 C        -0.185283         0.085204         0.029681
 C         1.348103        -0.078943         0.100039
 C         2.396524         1.069319         0.065438
 C         3.260835        -0.244238         0.182377
 C         2.337888        -0.737158        -0.921628
 O         4.533154        -0.139086         0.648466
 C         4.284519        -0.035304         2.075441
 O         2.899016        -0.386516         2.329115
 C         2.272698        -0.830727         1.151196
 H        -0.461209         0.433842         1.067206
 H        -0.397631         0.942027        -0.616519
 H        -0.758252        -0.733586        -0.292714
 H         2.691959         1.652461        -0.882048
 H         2.285878         1.779806         0.895183
 H         2.369912        -0.286685        -1.903658
 H         2.177104        -1.871345        -1.037302
 H         4.890129        -0.670793         2.656485
 H         4.468225         1.004906         2.287400
 H         2.151995        -1.930544         1.207671
