19
Iteration:  4161charge 0 multiplicity 1
 C        -0.138700         0.055058        -0.049423
 C         1.390083        -0.066232         0.053382
 C         2.377055         1.074032         0.097679
 C         3.252063        -0.178225         0.120553
 C         2.395030        -0.727865        -1.007595
 O         4.515410        -0.261942         0.720399
 C         4.231327         0.119814         2.048036
 O         2.894660        -0.498224         2.500802
 C         2.233992        -0.810945         1.126923
 H        -0.469023         0.794007         0.632657
 H        -0.379414         0.531550        -1.034979
 H        -0.698163        -0.881865         0.207340
 H         2.429506         1.816319        -0.750505
 H         2.219950         1.666706         1.061152
 H         2.460052        -0.066281        -1.754759
 H         2.327888        -1.811290        -1.030201
 H         5.152306        -0.153133         2.609501
 H         4.187397         1.278673         2.004563
 H         2.233783        -1.961147         1.061133
