19
Iteration:  3666
 C        -0.122756        -0.136336        -0.003383
 C         1.323328        -0.052644         0.009458
 C         2.346690         1.140519         0.087035
 C         3.230791        -0.094651         0.204922
 C         2.454605        -0.655643        -1.003784
 O         4.502990        -0.263685         0.629580
 C         4.243634        -0.233178         2.183372
 O         2.864185        -0.161744         2.386913
 C         2.287834        -0.760231         1.178247
 H        -0.540674         0.262505         0.994264
 H        -0.478079         0.475748        -0.939982
 H        -0.306213        -1.190230        -0.117542
 H         2.503130         1.714419        -0.845482
 H         2.273261         1.856694         0.935434
 H         2.399724        -0.128372        -1.959142
 H         2.412470        -1.775535        -0.993782
 H         4.764869        -1.126812         2.533641
 H         4.642929         0.719893         2.418218
 H         2.196379        -1.836186         1.056294
