19
Iteration:  3117
 C        -0.098497        -0.101775         0.014312
 C         1.355393        -0.052274         0.093922
 C         2.349947         1.151743         0.095071
 C         3.277233        -0.134508         0.160311
 C         2.361795        -0.684582        -0.975526
 O         4.601848        -0.247279         0.701429
 C         4.226678        -0.226424         2.093892
 O         2.806989        -0.160293         2.331361
 C         2.295165        -0.754833         1.109853
 H        -0.687096         0.308653         0.872909
 H        -0.585410         0.238405        -0.930537
 H        -0.389061        -1.124558         0.010289
 H         2.327446         1.943087        -0.572554
 H         2.296882         1.636755         1.052630
 H         2.403343        -0.171718        -1.901382
 H         2.406876        -1.828084        -1.032032
 H         4.696447        -1.069393         2.510663
 H         4.593178         0.704175         2.513673
 H         2.101124        -1.823659         1.062579
