19
Iteration:  4427charge 0 multiplicity 1
 C        -0.179625         0.108524        -0.015357
 C         1.395420        -0.083437         0.069345
 C         2.353041         1.032207         0.102683
 C         3.279587        -0.216818         0.122384
 C         2.382666        -0.758406        -1.030174
 O         4.557596        -0.334577         0.748466
 C         4.225877         0.173717         2.085104
 O         2.877435        -0.388315         2.411956
 C         2.305219        -0.825023         1.108339
 H        -0.385781         0.266181         1.124335
 H        -0.422158         0.998265        -0.594079
 H        -0.672576        -0.771996        -0.577740
 H         2.308710         1.816006        -0.651806
 H         2.338102         1.469324         1.119652
 H         2.126677        -0.132360        -1.934584
 H         2.394378        -1.735888        -1.352525
 H         4.964491        -0.187256         2.830205
 H         4.064335         1.258528         2.173310
 H         2.097639        -1.943380         1.205114
