19
Iteration:  1160
 C        -0.142948        -0.190065         0.010493
 C         1.349259         0.072085         0.202521
 C         2.475088         1.324910         0.248208
 C         3.253571        -0.194780         0.092041
 C         2.319004        -0.635045        -0.980553
 O         4.483349        -0.375604         0.608756
 C         4.274864        -0.165884         2.042509
 O         2.869725        -0.278793         2.339489
 C         2.285659        -0.717859         1.081329
 H        -0.718037         0.006185         0.804250
 H        -0.498234         0.242390        -0.891706
 H        -0.245099        -1.290765        -0.038165
 H         2.612445         2.025448        -0.579750
 H         2.555926         1.863561         1.209857
 H         2.147456        -0.034649        -1.847298
 H         2.088403        -1.688125        -1.123886
 H         4.964629        -0.888954         2.424623
 H         4.473743         0.821780         2.444266
 H         2.110187        -1.852635         1.278305
