19
Iteration:  2952charge 0 multiplicity 1
 C        -0.158682        -0.161160         0.007612
 C         1.365966        -0.066740         0.013499
 C         2.469168         1.268547         0.093007
 C         3.224782        -0.135025         0.200263
 C         2.319305        -0.682790        -0.967492
 O         4.553588        -0.220793         0.681339
 C         4.253148        -0.197415         2.112047
 O         2.838510        -0.223460         2.394662
 C         2.276679        -0.771295         1.072300
 H        -0.701594         0.351170         0.874091
 H        -0.643807         0.405747        -0.834696
 H        -0.571033        -1.161044        -0.077777
 H         2.623569         1.841041        -0.817484
 H         2.467192         1.797378         1.069919
 H         2.490110        -0.295570        -2.047474
 H         2.252345        -1.804076        -0.902561
 H         4.809599        -1.165699         2.369608
 H         4.630296         0.634819         2.741768
 H         2.279468        -1.884394         1.247058
