19
Iteration:   521
 C        -0.135901        -0.055889        -0.032001
 C         1.367664        -0.051486         0.062080
 C         2.303678         1.191452         0.069006
 C         3.169515        -0.109664         0.210537
 C         2.350994        -0.850313        -0.888528
 O         4.526581        -0.011498         0.668868
 C         4.382719        -0.489385         1.944583
 O         2.902788        -0.108506         2.391011
 C         2.273809        -0.686853         1.237505
 H        -0.589084         0.317945         0.916032
 H        -0.583985         0.408569        -0.857660
 H        -0.459999        -1.007091        -0.181516
 H         2.430976         1.679465        -0.911174
 H         2.210538         1.960319         0.932892
 H         2.626457        -0.527291        -1.866454
 H         2.342300        -1.992410        -0.937455
 H         4.263233        -1.542429         1.985013
 H         5.171045        -0.242493         2.637934
 H         2.084532        -1.832729         1.303448
