19
Iteration:   624charge 0 multiplicity 1
 C        -0.085220         0.079387         0.113608
 C         1.349985        -0.072903         0.086565
 C         2.356349         1.124944         0.189522
 C         3.276133        -0.239224         0.050024
 C         2.276508        -0.685997        -1.028519
 O         4.598349        -0.356750         0.721056
 C         4.212090         0.150100         2.072123
 O         2.900998        -0.409985         2.351006
 C         2.271752        -0.876725         1.098164
 H        -0.429484         0.744033         0.831517
 H        -0.249724         0.564238        -0.839140
 H        -0.593146        -0.929975         0.346124
 H         2.450775         1.751780        -0.736530
 H         2.282544         1.593475         1.126358
 H         2.134823         0.058181        -2.013165
 H         2.231980        -1.754062        -1.345345
 H         4.941909        -0.093562         2.822780
 H         4.133149         1.230161         1.817521
 H         2.136352        -2.012634         1.076055
