19
Iteration:  3624charge 0 multiplicity 1
 C        -0.149806        -0.096573        -0.080738
 C         1.362779        -0.024495         0.054364
 C         2.392959         1.163695         0.169673
 C         3.276769        -0.146482         0.153101
 C         2.315714        -0.690703        -0.980920
 O         4.527910        -0.229979         0.668113
 C         4.272229        -0.084857         2.199539
 O         2.897047        -0.261869         2.343659
 C         2.254050        -0.848063         1.091505
 H        -0.503184         0.587512         0.647115
 H        -0.433158        -0.062369        -1.088051
 H        -0.544142        -0.940303         0.475169
 H         2.562425         1.877650        -0.642521
 H         2.391993         1.849551         1.031479
 H         2.309322        -0.202282        -1.928298
 H         2.284501        -1.824988        -1.163696
 H         4.780741        -0.972725         2.698660
 H         4.505017         0.982417         2.551012
 H         2.066947        -2.038876         1.163965
