19
Iteration:   951charge 0 multiplicity 1
 C        -0.033268         0.175126         0.098056
 C         1.350679        -0.101510         0.036738
 C         2.271034         1.134940         0.153865
 C         3.235396        -0.146500         0.153557
 C         2.296142        -0.807612        -0.952209
 O         4.522134        -0.087539         0.623770
 C         4.289958        -0.117847         1.995064
 O         2.830161        -0.415267         2.362189
 C         2.336151        -0.893880         1.150799
 H        -0.295914         0.862037         0.893614
 H        -0.298768         0.579318        -0.880978
 H        -0.581891        -0.851478         0.372517
 H         2.252625         1.877859        -0.679148
 H         2.237241         1.634928         1.138771
 H         2.534399        -0.436567        -1.923831
 H         2.492716        -1.801997        -0.977712
 H         5.049223        -0.922245         2.295225
 H         4.592780         0.793090         2.562774
 H         2.336472        -1.950244         1.003653
