19
Iteration:  1216
 C        -0.142669         0.133356         0.078691
 C         1.333722        -0.105605         0.170173
 C         2.300492         1.082257         0.190427
 C         3.236966        -0.135157         0.109585
 C         2.369760        -0.686495        -1.081426
 O         4.555620        -0.279478         0.689147
 C         4.246638        -0.056127         2.077075
 O         2.908742        -0.361550         2.329999
 C         2.355517        -0.882871         1.102193
 H        -0.473731         0.574990         0.950432
 H        -0.335388         0.879654        -0.704640
 H        -0.721324        -0.742480        -0.127432
 H         2.254810         1.822345        -0.662611
 H         2.114930         1.701856         1.047470
 H         2.332429        -0.095111        -1.966490
 H         2.218454        -1.747682        -1.261178
 H         5.037076        -0.636174         2.546762
 H         4.319895         1.000222         2.319862
 H         2.337017        -2.049622         1.006663
