19
Iteration:  3185
 C        -0.177891         0.082066        -0.012419
 C         1.375352        -0.083068         0.048750
 C         2.329724         1.082278         0.109496
 C         3.234309        -0.116629         0.108456
 C         2.379344        -0.798388        -0.961385
 O         4.529668        -0.198455         0.679220
 C         4.256357        -0.045243         2.138847
 O         2.879164        -0.338940         2.373817
 C         2.314983        -0.857718         1.135989
 H        -0.575940         0.363834         0.939033
 H        -0.380166         0.729842        -0.873657
 H        -0.543822        -0.886844        -0.326073
 H         2.336120         1.993409        -0.531458
 H         2.198804         1.672167         1.057023
 H         2.516775        -0.211347        -1.926249
 H         2.489217        -1.931220        -0.931097
 H         4.922792        -0.659125         2.756285
 H         4.403067         1.017007         2.291468
 H         2.458728        -1.999225         1.096761
