19
Iteration:  4704charge 0 multiplicity 1
 C        -0.133144         0.003077         0.055584
 C         1.387954        -0.053856         0.087542
 C         2.463266         1.136819         0.061737
 C         3.255600        -0.187504         0.145162
 C         2.284280        -0.729330        -1.087920
 O         4.599234        -0.189996         0.694070
 C         4.215208        -0.001430         2.173286
 O         2.805255        -0.420674         2.391025
 C         2.289134        -0.801301         1.153787
 H        -0.659604         0.768130         0.658422
 H        -0.448011         0.114190        -1.066295
 H        -0.524256        -0.985719         0.227877
 H         2.456927         1.804980        -0.790445
 H         2.358111         1.817160         0.845721
 H         2.455376        -0.159143        -2.010279
 H         2.099147        -1.835519        -1.258528
 H         5.020896        -0.621852         2.798790
 H         4.297782         1.045345         2.369295
 H         2.240886        -1.925431         1.013068
