19
Iteration:  2141
 C        -0.169996        -0.032262         0.094608
 C         1.323105         0.031082         0.095791
 C         2.416394         1.166090         0.057349
 C         3.255350        -0.198495         0.157401
 C         2.343758        -0.660469        -0.989382
 O         4.489725        -0.412497         0.714737
 C         4.309360        -0.037175         2.099177
 O         2.850249        -0.281102         2.318752
 C         2.362311        -0.755066         1.083665
 H        -0.645098         0.098764         1.116038
 H        -0.620424         0.558125        -0.756297
 H        -0.353634        -1.168352        -0.153256
 H         2.300369         1.731283        -0.926684
 H         2.483800         1.842768         0.981472
 H         2.608928        -0.200514        -1.996636
 H         2.208693        -1.764903        -0.950527
 H         4.922521        -0.740277         2.581879
 H         4.564230         1.031255         2.351823
 H         1.922693        -1.804044         1.246623
