19
Iteration:  2313charge 0 multiplicity 1
 C        -0.242543        -0.012155         0.021668
 C         1.361098        -0.085748         0.099437
 C         2.406562         1.167269         0.062459
 C         3.245183        -0.190816         0.167834
 C         2.383864        -0.710096        -1.010659
 O         4.549450        -0.278385         0.612826
 C         4.297306        -0.145796         2.156319
 O         2.842815        -0.185674         2.427619
 C         2.327283        -0.795851         1.114826
 H        -0.685158         0.300778         0.955737
 H        -0.602502         0.680768        -0.803857
 H        -0.648788        -1.063536        -0.144159
 H         2.513503         1.867116        -0.819454
 H         2.366192         1.831976         0.997838
 H         2.255629        -0.389295        -2.055610
 H         2.275620        -1.764739        -0.920671
 H         4.858468        -1.098009         2.486967
 H         4.725449         0.882724         2.489294
 H         2.236820        -1.888542         1.039743
