19
Iteration:  4340
 C        -0.091917        -0.080939         0.015327
 C         1.347324        -0.075682         0.114260
 C         2.317244         1.104602         0.090022
 C         3.259278        -0.095923         0.153235
 C         2.414576        -0.756317        -1.002225
 O         4.539961        -0.169980         0.655070
 C         4.238755        -0.304601         2.149457
 O         2.808927        -0.150265         2.374068
 C         2.329721        -0.696333         1.133628
 H        -0.595580         0.857960         0.485602
 H        -0.310921         0.031853        -1.040095
 H        -0.827271        -0.897913         0.220104
 H         2.270719         1.729931        -0.782744
 H         2.294929         1.600045         1.022720
 H         2.608527        -0.326678        -2.080235
 H         2.481649        -1.828429        -0.989217
 H         4.753207        -1.264970         2.385847
 H         4.696975         0.567964         2.540536
 H         2.179829        -1.820428         1.144471
