19
Iteration:  3446
 C        -0.159062         0.029961        -0.029478
 C         1.364687        -0.086126         0.076446
 C         2.331592         1.065050         0.099080
 C         3.258096        -0.076075         0.153943
 C         2.338342        -0.774947        -0.958144
 O         4.588287        -0.089692         0.663105
 C         4.298300        -0.208590         2.178858
 O         2.851238        -0.282797         2.334262
 C         2.327617        -0.803538         1.110684
 H        -0.530061         0.893805         0.604934
 H        -0.520075         0.199442        -1.065510
 H        -0.465602        -0.927960         0.295056
 H         2.211255         1.726615        -0.757751
 H         2.169848         1.667278         0.999005
 H         2.492145        -0.533420        -2.033782
 H         2.139709        -1.815612        -0.868816
 H         4.816323        -1.113307         2.595436
 H         4.426709         0.699748         2.868209
 H         2.033396        -1.924835         1.040406
