19
Iteration:  2049
 C        -0.100599        -0.023390         0.015846
 C         1.389507        -0.053213         0.039807
 C         2.409073         1.262058         0.059304
 C         3.205903        -0.143392         0.132177
 C         2.303742        -0.820464        -0.910249
 O         4.457231        -0.110575         0.648176
 C         4.273976        -0.361054         2.090543
 O         2.925146        -0.199149         2.367753
 C         2.310835        -0.771181         1.176784
 H        -0.489324         0.692334         0.754121
 H        -0.436965         0.254614        -1.011715
 H        -0.483001        -1.006565         0.327740
 H         2.500309         1.836222        -0.964678
 H         2.311631         1.857209         0.963056
 H         2.156377        -0.429607        -1.904539
 H         2.337183        -1.931882        -0.846664
 H         4.705596        -1.320627         2.284120
 H         4.776676         0.396389         2.707874
 H         1.910660        -1.800882         1.397077
