19
Iteration:   658charge 0 multiplicity 1
 C        -0.163196         0.146871         0.059957
 C         1.382500        -0.072504         0.065792
 C         2.398180         1.079826         0.126927
 C         3.173216        -0.201755         0.150848
 C         2.333722        -0.762224        -0.927421
 O         4.536555        -0.188361         0.640000
 C         4.263582         0.097037         2.028529
 O         2.928623        -0.486748         2.362704
 C         2.274679        -0.906270         1.155350
 H        -0.421874         0.617514         0.953360
 H        -0.422757         0.782673        -0.805544
 H        -0.728526        -0.777421        -0.242152
 H         2.702323         1.693896        -0.727195
 H         2.404021         1.703850         0.976513
 H         2.215101        -0.096742        -1.923878
 H         2.262267        -1.884183        -1.003873
 H         5.066616        -0.341021         2.689780
 H         4.257374         1.181185         2.247287
 H         2.186405        -2.007587         1.087474
