19
Iteration:  3515charge 0 multiplicity 1
 C        -0.162909        -0.090643         0.017068
 C         1.381636        -0.056501         0.042489
 C         2.416285         1.181353         0.207794
 C         3.274120        -0.126899         0.106631
 C         2.358178        -0.683746        -1.048606
 O         4.523296        -0.397826         0.719590
 C         4.281750         0.057184         2.079247
 O         2.792756        -0.297544         2.377371
 C         2.303858        -0.787086         1.146834
 H        -0.615923         0.014223         0.989889
 H        -0.658173         0.707595        -0.538673
 H        -0.324251        -1.109285        -0.624886
 H         2.365227         1.893110        -0.623355
 H         2.377956         1.749134         1.140014
 H         2.449360        -0.392421        -2.090850
 H         2.320505        -1.794199        -1.160423
 H         4.942770        -0.460477         2.829088
 H         4.526997         1.173508         2.019502
 H         2.236783        -1.930130         1.108476
