19
Iteration:  3208
 C        -0.135053        -0.026369        -0.017049
 C         1.410613        -0.073988         0.071804
 C         2.372498         1.093674         0.166536
 C         3.180286        -0.218737         0.129473
 C         2.292196        -0.684804        -1.086795
 O         4.623955        -0.230697         0.702462
 C         4.273012         0.041827         2.110222
 O         2.822659        -0.336302         2.379525
 C         2.248086        -0.849551         1.143830
 H        -0.265902         0.514411         0.871972
 H        -0.363533         0.479382        -0.939464
 H        -0.623690        -1.013539         0.049889
 H         2.507035         1.797545        -0.741882
 H         2.520539         1.815967         1.028989
 H         2.600838         0.024292        -1.938547
 H         2.298649        -1.799269        -1.159167
 H         4.865610        -0.592754         2.806161
 H         4.344836         1.098672         2.382499
 H         2.182010        -1.989767         1.324463
