19
Iteration:  1981charge 0 multiplicity 1
 C        -0.222799        -0.032489         0.091477
 C         1.369913        -0.049864         0.081168
 C         2.326911         1.209702         0.109829
 C         3.304954        -0.104695         0.106462
 C         2.439857        -0.829155        -0.995173
 O         4.534577        -0.258631         0.644520
 C         4.300629        -0.336857         2.073738
 O         2.817666        -0.082761         2.336138
 C         2.288500        -0.709649         1.180699
 H        -0.689123         0.308230         1.080991
 H        -0.579216         0.599995        -0.709742
 H        -0.611763        -1.014001        -0.074691
 H         2.435574         1.897750        -0.785090
 H         2.271256         1.677444         1.139226
 H         2.399841        -0.366377        -1.986702
 H         2.780251        -1.880720        -0.985493
 H         4.413785        -1.336938         2.362543
 H         5.012849         0.341399         2.515196
 H         2.148984        -1.863628         1.185876
