19
Iteration:  4244charge 0 multiplicity 1
 C        -0.165126        -0.057894         0.040494
 C         1.334928        -0.076969         0.024806
 C         2.364848         1.128709         0.139224
 C         3.249751        -0.102066         0.101458
 C         2.479648        -0.813027        -0.997737
 O         4.556590        -0.178055         0.676396
 C         4.269390        -0.259371         2.107285
 O         2.775661        -0.131548         2.362431
 C         2.291150        -0.713528         1.179946
 H        -0.689611         0.182319         1.002446
 H        -0.642356         0.508197        -0.697086
 H        -0.543639        -0.976590        -0.229458
 H         2.491860         1.744421        -0.747810
 H         2.335416         1.681913         1.062456
 H         2.611414        -0.510883        -2.075235
 H         2.647068        -1.860314        -1.139086
 H         4.596417        -1.226149         2.453588
 H         4.661908         0.574353         2.627907
 H         2.233211        -1.768485         1.189305
