19
Iteration:  4211
 C        -0.055444        -0.038732         0.075831
 C         1.442601        -0.148184         0.069730
 C         2.378446         1.096977         0.098491
 C         3.243204        -0.134160         0.120470
 C         2.295305        -0.704163        -1.078239
 O         4.581567        -0.300320         0.717486
 C         4.168906        -0.030356         2.155271
 O         2.771893        -0.251534         2.321996
 C         2.308510        -0.774748         1.147567
 H        -0.572591         0.223340         1.076637
 H        -0.381280         0.732262        -0.645887
 H        -0.443339        -0.963897        -0.222091
 H         2.543351         1.621161        -0.821714
 H         2.415192         1.844661         0.857412
 H         2.293687         0.084953        -1.925495
 H         2.516686        -1.770623        -1.118315
 H         4.840844        -0.630776         2.706004
 H         4.431106         0.945895         2.377867
 H         2.234455        -1.808728         1.227935
