19
Iteration:  3865charge 0 multiplicity 1
 C        -0.125881         0.077179         0.011715
 C         1.360361        -0.166568         0.110755
 C         2.390378         1.076217         0.063129
 C         3.269631        -0.184772         0.124516
 C         2.297009        -0.752181        -0.979216
 O         4.586790        -0.152662         0.739206
 C         4.210314         0.033098         2.130645
 O         2.790915        -0.399435         2.327738
 C         2.367508        -0.793328         1.109309
 H        -0.276009         0.227533         1.077120
 H        -0.396167         1.032168        -0.664615
 H        -0.789549        -0.803163        -0.337806
 H         2.238738         1.742768        -0.788945
 H         2.517041         1.555158         1.030496
 H         2.471731        -0.415598        -1.998365
 H         2.339711        -1.961400        -1.078907
 H         4.889424        -0.565545         2.658968
 H         4.484772         1.008159         2.479750
 H         2.159061        -1.812168         0.916428
