19
Iteration:   501charge 0 multiplicity 1
 C        -0.200208        -0.075299        -0.037506
 C         1.334552        -0.046547         0.066425
 C         2.327529         1.139541        -0.026027
 C         3.203529        -0.113811         0.155083
 C         2.326538        -0.736868        -0.952386
 O         4.503165        -0.077699         0.648187
 C         4.301885        -0.449911         2.108050
 O         3.007507        -0.164403         2.467188
 C         2.319560        -0.682770         1.224219
 H        -0.609603         0.509263         0.859315
 H        -0.498468         0.406063        -0.911139
 H        -0.634438        -1.078357        -0.038296
 H         2.393858         1.683800        -0.951237
 H         2.397935         1.818981         0.901460
 H         2.203417        -0.365974        -2.015060
 H         2.344339        -1.875866        -1.054539
 H         4.649495        -1.461413         2.237201
 H         4.853730         0.294652         2.643483
 H         2.285991        -1.801598         1.247333
