19
Iteration:   142charge 0 multiplicity 1
 C        -0.097173         0.024583         0.055076
 C         1.390621        -0.061235         0.108370
 C         2.405448         1.089703         0.191615
 C         3.235974        -0.165591         0.128671
 C         2.321447        -0.697133        -1.024531
 O         4.524586        -0.252493         0.661721
 C         4.234328        -0.027018         2.100015
 O         2.815423        -0.289276         2.276927
 C         2.339034        -0.883690         1.150701
 H        -0.514739         0.730076         0.948299
 H        -0.423918         0.422635        -0.821221
 H        -0.566860        -0.980945         0.182781
 H         2.441217         1.723277        -0.670468
 H         2.400632         1.694428         1.114772
 H         2.251651        -0.036077        -1.918381
 H         2.285155        -1.739586        -1.226583
 H         4.881758        -0.803804         2.518944
 H         4.531821         0.955301         2.462658
 H         2.231167        -2.001891         1.082704
