19
Iteration:  3835charge 0 multiplicity 1
 C        -0.103627         0.010657        -0.053168
 C         1.381918        -0.096766         0.078818
 C         2.302441         1.105411         0.127247
 C         3.222630        -0.171561         0.180913
 C         2.413277        -0.714407        -1.035004
 O         4.503865        -0.226273         0.638367
 C         4.209987        -0.062433         2.145748
 O         2.868828        -0.286791         2.398769
 C         2.334262        -0.806402         1.157635
 H        -0.413284         0.482230         0.856058
 H        -0.483007         0.616612        -0.932993
 H        -0.584548        -1.046649         0.047696
 H         2.246842         1.767057        -0.722348
 H         2.329007         1.766212         0.997737
 H         2.664060        -0.237900        -1.990396
 H         2.388966        -1.779717        -0.911416
 H         4.872088        -0.896198         2.512130
 H         4.646371         0.944188         2.397388
 H         2.152289        -1.927867         1.140034
