19
Iteration:  2359
 C        -0.108052         0.024264        -0.043627
 C         1.344458        -0.064938         0.127542
 C         2.343767         1.163438         0.053467
 C         3.218527        -0.140757         0.122754
 C         2.287506        -0.798647        -0.930828
 O         4.571988        -0.136151         0.646077
 C         4.315281        -0.216807         2.104471
 O         2.820842        -0.264497         2.466649
 C         2.324427        -0.825388         1.147631
 H        -0.515940         0.606984         0.701318
 H        -0.301396         0.522052        -0.978606
 H        -0.621448        -0.964013        -0.007824
 H         2.251715         1.526488        -1.032272
 H         2.458425         2.080470         0.735372
 H         2.329792        -0.305742        -1.870642
 H         2.259762        -1.900018        -1.004995
 H         4.921316        -1.067913         2.329244
 H         4.845575         0.764709         2.440796
 H         2.288102        -1.889799         1.129220
