19
Iteration:   665charge 0 multiplicity 1
 C        -0.102747         0.135716         0.032083
 C         1.380451        -0.060838         0.116155
 C         2.337957         1.129337         0.136331
 C         3.188642        -0.188151         0.204750
 C         2.358110        -0.806181        -0.950887
 O         4.553244        -0.186206         0.601825
 C         4.263574         0.063559         2.033586
 O         2.927248        -0.479464         2.352708
 C         2.265559        -0.835746         1.128514
 H        -0.566195         0.510465         0.992364
 H        -0.337103         0.823011        -0.746348
 H        -0.729279        -0.767810        -0.154791
 H         2.609145         1.731830        -0.808461
 H         2.310157         1.612813         1.144936
 H         2.278274        -0.544378        -2.015530
 H         2.149960        -1.845685        -0.901212
 H         4.880612        -0.601476         2.553654
 H         4.189798         1.119168         2.340670
 H         2.148565        -1.991413         1.127917
