19
Iteration:  4813charge 0 multiplicity 1
 C        -0.100959        -0.135801        -0.016503
 C         1.356727         0.034787         0.097634
 C         2.397747         1.211871         0.155803
 C         3.212243        -0.116419         0.184188
 C         2.363588        -0.726126        -0.975331
 O         4.540971        -0.293911         0.646734
 C         4.244595        -0.098828         2.130486
 O         2.834959        -0.277743         2.346057
 C         2.252616        -0.753932         1.096817
 H        -0.672878         0.154373         0.817682
 H        -0.355199         0.605111        -0.787102
 H        -0.322329        -1.138686        -0.180205
 H         2.622801         1.753055        -0.824026
 H         2.579625         1.755103         1.102740
 H         2.354820        -0.526009        -2.028817
 H         2.375177        -1.906005        -1.061316
 H         4.839178        -0.921090         2.669471
 H         4.525680         0.870385         2.355767
 H         2.229634        -1.828195         1.188698
