19
Iteration:   201charge 0 multiplicity 1
 C        -0.126029        -0.021474        -0.030882
 C         1.380310        -0.004489         0.162765
 C         2.367760         1.195055         0.181101
 C         3.231964        -0.153740         0.159908
 C         2.317187        -0.709950        -0.933633
 O         4.590380        -0.338132         0.574970
 C         4.251727         0.017324         2.023563
 O         2.827704        -0.376853         2.424975
 C         2.334674        -0.855597         1.144554
 H        -0.700920         0.147277         0.816546
 H        -0.270146         0.990095        -0.683693
 H        -0.521149        -0.901819        -0.614625
 H         2.303078         1.829783        -0.814345
 H         2.357183         1.952735         1.054390
 H         2.397695        -0.351727        -2.033780
 H         2.053818        -1.842866        -1.090399
 H         4.928395        -0.499442         2.705114
 H         4.254089         1.113932         2.203042
 H         2.335517        -1.959390         1.188562
