19
Iteration:  3347
 C        -0.189380        -0.099001        -0.020088
 C         1.391241        -0.073508         0.064884
 C         2.302281         1.157347         0.013039
 C         3.295423        -0.126749         0.116279
 C         2.427785        -0.716587        -0.949324
 O         4.524740        -0.153885         0.695899
 C         4.334112        -0.327067         2.057616
 O         2.831191        -0.168897         2.385416
 C         2.245840        -0.725205         1.276805
 H        -0.664922         0.013813         1.071516
 H        -0.292297         0.706796        -0.812296
 H        -0.509229        -1.086855        -0.384001
 H         2.185772         1.762296        -0.877712
 H         2.339941         1.898207         0.834602
 H         2.638836        -0.167211        -1.859043
 H         2.262304        -1.745688        -1.239390
 H         4.523429        -1.328927         2.445527
 H         4.670104         0.552774         2.752910
 H         2.377842        -1.849123         1.272642
