19
Iteration:   983
 C        -0.279236        -0.036568         0.015703
 C         1.321220        -0.038979         0.138755
 C         2.399693         1.188406         0.089062
 C         3.214298        -0.111234         0.161062
 C         2.247764        -0.671895        -0.974920
 O         4.550154        -0.185025         0.642513
 C         4.369409        -0.246750         2.053695
 O         2.927464        -0.292320         2.405453
 C         2.351335        -0.804067         1.137171
 H        -0.883342         0.510393         0.713380
 H        -0.524020         0.402373        -0.922965
 H        -0.551514        -1.140650        -0.073255
 H         2.516705         1.721759        -0.877088
 H         2.527452         1.842411         0.923633
 H         2.383262        -0.156988        -1.939417
 H         2.429131        -1.688019        -1.137962
 H         4.776202        -1.205280         2.404592
 H         4.680932         0.597794         2.704774
 H         2.423888        -1.934557         1.207756
