19
Iteration:  3033charge 0 multiplicity 1
 C        -0.073937         0.006305        -0.068442
 C         1.417048        -0.113767         0.135756
 C         2.313750         1.125512         0.083287
 C         3.236325        -0.137483         0.174303
 C         2.366871        -0.773919        -0.927467
 O         4.525068        -0.013072         0.626852
 C         4.275585        -0.342431         2.092342
 O         2.778001        -0.252122         2.379575
 C         2.327609        -0.741274         1.162458
 H        -0.280260         0.601860         0.736356
 H        -0.272309         0.559287        -0.944537
 H        -0.495759        -0.956464         0.007975
 H         2.353903         1.573190        -0.958643
 H         2.159859         1.796244         0.943190
 H         2.339192        -0.402414        -1.920123
 H         2.309041        -1.880958        -0.944578
 H         4.725802        -1.328870         2.371837
 H         4.616360         0.497696         2.705914
 H         2.248357        -1.827724         1.287576
