19
Iteration:  2623
 C        -0.054825         0.048969         0.047708
 C         1.410359        -0.106880         0.088029
 C         2.429750         1.159676         0.091681
 C         3.250471        -0.139483         0.159558
 C         2.321727        -0.826671        -0.969795
 O         4.523202        -0.123011         0.681486
 C         4.252379        -0.155114         2.076422
 O         2.798534        -0.272245         2.323002
 C         2.253230        -0.843012         1.117571
 H        -0.606843         0.407551         0.989848
 H        -0.543907         0.614435        -0.735722
 H        -0.471606        -1.015012        -0.135655
 H         2.429188         1.833179        -0.761585
 H         2.405252         1.652312         1.051807
 H         2.382193        -0.228711        -1.872016
 H         2.359449        -1.858897        -1.172025
 H         4.813587        -0.893438         2.621555
 H         4.365449         0.756172         2.633105
 H         2.277023        -1.936134         1.185741
