19
Iteration:   834
 C        -0.134754         0.044605         0.002043
 C         1.334623        -0.128403         0.128599
 C         2.317472         1.121808         0.228544
 C         3.196299        -0.081409         0.121377
 C         2.305500        -0.764514        -1.041859
 O         4.496144        -0.214366         0.603566
 C         4.285143        -0.199267         2.073170
 O         2.906967        -0.255504         2.381260
 C         2.403217        -0.760824         1.147837
 H        -0.591119         0.501090         0.826698
 H        -0.272931         0.733775        -0.853952
 H        -0.660327        -0.876614        -0.145871
 H         2.341958         1.706570        -0.669625
 H         2.352598         1.706751         1.190071
 H         2.298570        -0.211446        -1.978691
 H         2.518709        -1.891256        -1.175780
 H         4.912487        -1.074251         2.430972
 H         4.569730         0.714496         2.550693
 H         2.502439        -1.919479         1.364243
