19
Iteration:  2340charge 0 multiplicity 1
 C        -0.123529         0.037850         0.004251
 C         1.388094        -0.035652         0.008649
 C         2.272000         1.159877        -0.009432
 C         3.193350        -0.191620         0.197441
 C         2.379040        -0.804671        -0.963222
 O         4.504436        -0.164632         0.655641
 C         4.360141        -0.199713         2.099267
 O         2.907064        -0.321257         2.386228
 C         2.297371        -0.698386         1.247111
 H        -0.530880         0.499172         0.966780
 H        -0.499426         0.629386        -0.799191
 H        -0.480536        -0.928287        -0.185558
 H         2.390531         1.910719        -0.823902
 H         2.109908         1.703207         0.924107
 H         2.428507        -0.499815        -2.013999
 H         2.307687        -1.951792        -0.870824
 H         4.803585        -1.111669         2.537047
 H         4.566007         0.752195         2.598188
 H         2.040922        -1.784480         1.202073
