19
Iteration:  3430
 C        -0.161232        -0.014935         0.032298
 C         1.372460        -0.095576         0.033566
 C         2.265532         1.227440         0.081009
 C         3.227272        -0.136547         0.103449
 C         2.386937        -0.819233        -1.044372
 O         4.564813        -0.103867         0.750018
 C         4.278135        -0.252558         2.118775
 O         2.839706        -0.267741         2.395059
 C         2.326112        -0.763227         1.128067
 H        -0.386602         0.929867         0.516671
 H        -0.518722         0.123805        -0.990735
 H        -0.721683        -0.933724         0.441729
 H         2.447540         1.775114        -0.851232
 H         2.362520         1.755145         1.041798
 H         2.284080        -0.333763        -2.010083
 H         2.611937        -1.954869        -1.041557
 H         4.670265        -1.232785         2.520636
 H         4.852483         0.574327         2.618624
 H         2.494341        -1.840915         1.214876
