19
Iteration:   531
 C        -0.133164        -0.098818        -0.028230
 C         1.359152        -0.019366         0.100630
 C         2.274607         1.153635         0.029592
 C         3.206460        -0.135907         0.161124
 C         2.396070        -0.826693        -0.858901
 O         4.579203         0.011525         0.642058
 C         4.284485        -0.568853         1.953603
 O         2.890316        -0.104169         2.392697
 C         2.281305        -0.625069         1.243121
 H        -0.545352         0.350638         0.890856
 H        -0.334003         0.634518        -0.799336
 H        -0.510826        -1.037273        -0.099471
 H         2.258713         1.845196        -0.830237
 H         2.374946         1.630739         1.052387
 H         2.362982        -0.485306        -1.834145
 H         2.341921        -1.960461        -0.718195
 H         4.419800        -1.658939         1.894310
 H         4.822731         0.066513         2.603199
 H         2.186861        -1.776634         1.287213
