19
Iteration:  3306charge 0 multiplicity 1
 C        -0.116385         0.013544        -0.074536
 C         1.370321        -0.081781         0.104769
 C         2.311233         1.064392         0.139412
 C         3.202772        -0.167698         0.154333
 C         2.330861        -0.786760        -0.962615
 O         4.608205        -0.099180         0.681753
 C         4.278838        -0.160754         2.111855
 O         2.795107        -0.270731         2.341641
 C         2.368763        -0.770437         1.120040
 H        -0.446312         0.465156         0.938928
 H        -0.350146         0.788479        -0.853543
 H        -0.581519        -1.029141        -0.295836
 H         2.207010         1.857282        -0.639693
 H         2.457136         1.655247         1.087557
 H         2.374458        -0.386655        -2.040811
 H         2.216864        -1.884272        -0.890961
 H         4.694123        -1.085262         2.591243
 H         4.546398         0.788905         2.590540
 H         2.387351        -1.919095         1.231008
