19
Iteration:  2016charge 0 multiplicity 1
 C        -0.173893        -0.115576         0.047051
 C         1.409334         0.000809         0.125354
 C         2.328980         1.237293         0.000065
 C         3.273741        -0.175893         0.106699
 C         2.299792        -0.731018        -0.973353
 O         4.635203        -0.196237         0.632051
 C         4.280059        -0.418452         2.137349
 O         2.857495        -0.105942         2.406574
 C         2.280824        -0.701215         1.179305
 H        -0.794708         0.356540         0.863943
 H        -0.591818         0.274961        -0.932933
 H        -0.432766        -1.184229        -0.040963
 H         2.416942         1.776611        -1.058327
 H         2.299399         1.988571         0.798195
 H         2.142573        -0.155662        -1.867288
 H         2.389292        -1.837095        -1.149144
 H         4.465764        -1.401759         2.290934
 H         4.879012         0.267785         2.745990
 H         1.879609        -1.736726         1.478162
