19
Iteration:  1479
 C        -0.132536        -0.049144        -0.021046
 C         1.358095        -0.070004         0.062805
 C         2.333902         1.200725         0.088982
 C         3.249360        -0.096543         0.126164
 C         2.315988        -0.682354        -0.974739
 O         4.542241        -0.287978         0.568680
 C         4.376006        -0.346014         2.133362
 O         2.841546        -0.162360         2.441165
 C         2.246888        -0.705781         1.203879
 H        -0.521547         0.497177         0.935004
 H        -0.636358         0.285679        -0.986305
 H        -0.310594        -1.173972        -0.042109
 H         2.236493         1.714235        -0.842601
 H         2.304934         1.886004         0.965887
 H         2.267541        -0.115589        -1.948635
 H         2.501315        -1.809825        -1.025312
 H         4.872681        -1.175706         2.631761
 H         4.862291         0.501215         2.558507
 H         2.223041        -1.754685         1.375715
