19
Iteration:  3887charge 0 multiplicity 1
 C        -0.120159         0.078177         0.100667
 C         1.419421        -0.070120         0.050073
 C         2.421650         1.166038         0.073264
 C         3.216026        -0.298784         0.159166
 C         2.349264        -0.769907        -1.066008
 O         4.544224        -0.171680         0.707375
 C         4.202312         0.053277         2.123598
 O         2.789273        -0.394249         2.387071
 C         2.305798        -0.874985         1.113503
 H        -0.452403         0.058577         1.111808
 H        -0.563948         0.870329        -0.652592
 H        -0.438021        -0.930814        -0.319519
 H         2.761604         1.786938        -0.753632
 H         2.220484         1.736445         0.990486
 H         2.434496        -0.183466        -1.980193
 H         2.494875        -1.956742        -1.171713
 H         5.027767        -0.254965         2.662958
 H         4.316620         1.106079         2.178044
 H         2.241217        -1.934004         0.989624
