19
Iteration:  2027charge 0 multiplicity 1
 C        -0.202620        -0.096268         0.024812
 C         1.269896         0.042542         0.157745
 C         2.424858         1.141463         0.014908
 C         3.241089        -0.165100         0.125078
 C         2.331851        -0.758301        -0.973727
 O         4.609062        -0.136112         0.668749
 C         4.319087        -0.424318         2.070956
 O         2.833837        -0.140557         2.409932
 C         2.316682        -0.640468         1.156125
 H        -0.838761         0.362399         0.822704
 H        -0.473304         0.231399        -1.014988
 H        -0.329693        -1.180124         0.165469
 H         2.498192         1.663123        -1.057238
 H         2.551546         1.813006         0.870702
 H         2.355546        -0.274805        -1.946808
 H         2.029448        -1.832786        -1.039956
 H         4.626741        -1.367865         2.311637
 H         4.805504         0.320474         2.707106
 H         2.194668        -1.833695         1.229090
