19
Iteration:  2689
 C        -0.071073        -0.035695        -0.032267
 C         1.407497        -0.033046         0.035734
 C         2.328474         1.213375         0.204064
 C         3.262053        -0.133254         0.130730
 C         2.368067        -0.784604        -1.013112
 O         4.579239        -0.288740         0.633404
 C         4.233024        -0.120413         2.113529
 O         2.851932        -0.227578         2.371963
 C         2.192787        -0.791881         1.189353
 H        -0.569354         0.313551         0.958654
 H        -0.370182         0.297148        -1.024032
 H        -0.310107        -1.139777        -0.087949
 H         2.301879         1.993827        -0.577972
 H         2.220699         1.744109         1.135442
 H         2.249757        -0.188998        -1.968529
 H         2.364870        -1.829118        -1.141959
 H         4.838089        -0.928813         2.578333
 H         4.646973         0.790593         2.529571
 H         1.995264        -1.908508         1.188682
