19
Iteration:  3399
 C        -0.130703        -0.153920         0.073008
 C         1.384128        -0.050216         0.071420
 C         2.320527         1.212878         0.081750
 C         3.247942        -0.135693         0.176366
 C         2.376272        -0.721804        -1.033409
 O         4.591004        -0.112388         0.664715
 C         4.224891        -0.356865         2.126209
 O         2.846678        -0.141256         2.354072
 C         2.247050        -0.751072         1.107738
 H        -0.454781         0.719966         0.680268
 H        -0.450818         0.092541        -0.937043
 H        -0.368667        -1.137278         0.345425
 H         2.590980         1.689815        -0.875920
 H         2.435093         1.986346         0.865651
 H         2.282044        -0.344482        -2.027074
 H         2.586723        -1.844200        -1.007508
 H         4.281630        -1.365299         2.516664
 H         4.755303         0.367842         2.884828
 H         2.211448        -1.959403         1.229206
