19
Iteration:  4942
 C        -0.110553        -0.118860        -0.043970
 C         1.392900        -0.034066         0.037627
 C         2.292731         1.188728         0.121758
 C         3.226598        -0.151489         0.151792
 C         2.386240        -0.741139        -0.931172
 O         4.558789        -0.235682         0.635311
 C         4.239629        -0.335806         2.095463
 O         2.824530        -0.101475         2.386048
 C         2.324936        -0.667722         1.148071
 H        -0.615805         0.203993         1.020417
 H        -0.519910         0.491568        -0.847318
 H        -0.296907        -1.161679        -0.392715
 H         2.229004         1.779849        -0.807540
 H         2.430610         1.769910         1.007822
 H         2.455367        -0.130954        -1.758523
 H         2.339883        -1.761536        -0.956945
 H         4.401473        -1.379905         2.405789
 H         4.844268         0.338481         2.885589
 H         2.482303        -1.766205         1.357268
