19
Iteration:  2760
 C        -0.165887         0.068291         0.035753
 C         1.424216        -0.051232         0.000428
 C         2.384574         1.193994         0.074839
 C         3.181528        -0.072315         0.189825
 C         2.390569        -0.801675        -1.027577
 O         4.542723        -0.214664         0.695612
 C         4.235241        -0.033531         2.125222
 O         2.815018        -0.378591         2.366642
 C         2.353153        -0.891731         1.117738
 H        -0.421084         0.589469         0.923615
 H        -0.695667         0.380737        -0.920270
 H        -0.607658        -0.946664         0.216213
 H         2.485652         1.961289        -0.730829
 H         2.196699         1.590377         1.119213
 H         2.376382        -0.539782        -2.057787
 H         2.468892        -1.908845        -0.758418
 H         4.778206        -0.872944         2.589108
 H         4.657441         0.896277         2.603892
 H         2.310752        -1.944305         1.034757
