19
Iteration:  3232
 C        -0.152872        -0.068408         0.035203
 C         1.453058        -0.021592         0.127617
 C         2.416786         1.125627         0.182142
 C         3.263397        -0.177490         0.117812
 C         2.374615        -0.677998        -1.014423
 O         4.508057        -0.338473         0.706299
 C         4.153958         0.044348         2.051750
 O         2.795347        -0.336386         2.352118
 C         2.347633        -0.783370         1.056005
 H        -0.505182         0.571402         0.760482
 H        -0.419619         0.134955        -0.962663
 H        -0.450732        -1.108131         0.307446
 H         2.606022         1.806632        -0.720589
 H         2.458948         1.833792         1.057235
 H         2.371173         0.025549        -1.938273
 H         2.315149        -1.759027        -1.071326
 H         4.848137        -0.585937         2.689803
 H         4.252777         1.121248         2.254594
 H         2.301742        -1.888871         1.228505
