19
Iteration:  2409
 C        -0.091108        -0.072882         0.085149
 C         1.395103        -0.082294         0.033252
 C         2.341740         1.117696         0.073049
 C         3.231813        -0.109310         0.130641
 C         2.425939        -0.693165        -0.993081
 O         4.537161        -0.305228         0.613712
 C         4.247214        -0.189929         2.081178
 O         2.800119        -0.181940         2.389204
 C         2.275769        -0.686897         1.228956
 H        -0.423193         0.707600         0.873087
 H        -0.621329         0.151317        -0.905292
 H        -0.441596        -1.114206         0.309367
 H         2.545561         1.836403        -0.689028
 H         2.109305         1.707048         0.949485
 H         2.442558        -0.086398        -1.967965
 H         2.346773        -1.781815        -1.172817
 H         4.613582        -1.191602         2.418580
 H         4.793594         0.665160         2.396304
 H         2.234181        -1.839685         1.284999
