19
Iteration:  2279
 C        -0.085117        -0.072203         0.073874
 C         1.401996        -0.067511         0.041259
 C         2.462801         1.156587         0.162255
 C         3.234510        -0.211027         0.139030
 C         2.293402        -0.653590        -1.028599
 O         4.489245        -0.317204         0.653081
 C         4.271109        -0.115825         2.110818
 O         2.802240        -0.124006         2.343335
 C         2.307802        -0.839823         1.125547
 H        -0.515999         0.504126         0.957782
 H        -0.471433         0.450723        -0.875789
 H        -0.538710        -1.102518         0.057006
 H         2.484999         1.780859        -0.757023
 H         2.371217         1.626712         1.149458
 H         2.134322        -0.235653        -2.062495
 H         2.188340        -1.715421        -0.954337
 H         4.990774        -0.883628         2.638927
 H         4.720886         0.895085         2.458910
 H         2.246583        -1.963887         1.165707
