19
Iteration:   596
 C        -0.127664        -0.016855         0.149264
 C         1.349699         0.011748         0.086338
 C         2.421409         1.177045         0.175861
 C         3.221932        -0.172376         0.076442
 C         2.434296        -0.737083        -1.022882
 O         4.501695        -0.282857         0.587040
 C         4.248867        -0.058014         2.063520
 O         2.807923        -0.289975         2.390084
 C         2.293304        -0.847720         1.122792
 H        -0.621517         0.642166         0.943505
 H        -0.526677         0.310146        -0.904765
 H        -0.522591        -1.002177         0.296372
 H         2.605246         1.840957        -0.662913
 H         2.478172         1.684189         1.183106
 H         2.469474        -0.384026        -1.958404
 H         2.285661        -1.827870        -1.156457
 H         4.887500        -0.799828         2.685418
 H         4.386895         1.002472         2.214140
 H         2.413168        -1.928541         1.120850
