19
Iteration:  4313charge 0 multiplicity 1
 C        -0.118843        -0.056872        -0.105547
 C         1.375644        -0.031950         0.028589
 C         2.321371         1.139366         0.066776
 C         3.199678        -0.073384         0.233812
 C         2.383467        -0.805179        -0.880464
 O         4.504675        -0.027041         0.674214
 C         4.245893        -0.459010         2.092863
 O         2.891632        -0.160543         2.389034
 C         2.345682        -0.701951         1.188984
 H        -0.609847         0.724201         0.399698
 H        -0.661200        -0.263075        -1.078125
 H        -0.497925        -0.954928         0.400188
 H         2.388020         1.655928        -0.953284
 H         2.116663         1.929998         0.870092
 H         2.546632        -0.548639        -1.878336
 H         2.500640        -1.923398        -0.974636
 H         4.526979        -1.489838         2.081138
 H         4.952948         0.202923         2.640746
 H         2.276339        -1.791184         1.199951
