19
Iteration:  4080
 C        -0.150593        -0.163006        -0.011156
 C         1.400022        -0.073893         0.101446
 C         2.329885         1.192827         0.027855
 C         3.226666        -0.084288         0.118099
 C         2.394098        -0.693180        -0.962572
 O         4.549962        -0.235189         0.718933
 C         4.280881        -0.263441         2.178803
 O         2.824795        -0.212694         2.315312
 C         2.290103        -0.667761         1.153005
 H        -0.367922         0.313022         1.045104
 H        -0.452274         0.482665        -0.857339
 H        -0.555979        -1.163799        -0.168127
 H         2.265553         1.567954        -1.016656
 H         2.392097         1.873926         0.886221
 H         2.450621        -0.188614        -1.918137
 H         2.388034        -1.699181        -1.215523
 H         4.574380        -1.202013         2.712499
 H         4.824374         0.609224         2.638745
 H         2.145877        -1.734401         1.293781
