19
Iteration:   573
 C        -0.141576        -0.067522         0.082259
 C         1.357615        -0.056250         0.026929
 C         2.310224         1.118855         0.039458
 C         3.251101        -0.139912         0.097936
 C         2.326202        -0.678719        -0.989187
 O         4.565809        -0.188755         0.710332
 C         4.325677        -0.256665         2.107243
 O         2.904126        -0.230079         2.350304
 C         2.277070        -0.702611         1.206262
 H        -0.491113         0.470078         0.985184
 H        -0.637755         0.414974        -0.881621
 H        -0.551493        -1.105504         0.187786
 H         2.427332         1.610237        -0.937226
 H         2.274943         1.793635         0.888149
 H         2.309143        -0.209873        -1.923895
 H         2.050801        -1.699577        -1.233374
 H         4.628109        -1.333152         2.412392
 H         4.788450         0.588620         2.643527
 H         2.127132        -1.773308         1.252757
