19
Iteration:  2187
 C        -0.116258         0.103718        -0.017364
 C         1.365188        -0.015073         0.150611
 C         2.395951         1.090667         0.212868
 C         3.219151        -0.265924         0.106366
 C         2.396269        -0.782144        -0.963176
 O         4.503944        -0.240447         0.677937
 C         4.242785        -0.009392         1.995358
 O         2.862206        -0.287823         2.298704
 C         2.273337        -0.879665         1.184373
 H        -0.463066         0.676904         0.962585
 H        -0.344601         0.702224        -0.908027
 H        -0.649530        -0.879255         0.013007
 H         2.445929         1.706444        -0.626474
 H         2.457082         1.651006         1.133028
 H         2.299328        -0.223714        -1.881702
 H         2.175657        -1.874662        -1.056502
 H         4.978140        -0.620281         2.618114
 H         4.440125         1.041439         2.213380
 H         2.398462        -1.984893         1.090163
