19
Iteration:   432charge 0 multiplicity 1
 C        -0.129514         0.055852         0.142275
 C         1.327069        -0.061061         0.109623
 C         2.399425         1.103036         0.154795
 C         3.221699        -0.246501         0.122686
 C         2.332583        -0.634660        -1.097671
 O         4.620569        -0.344997         0.707128
 C         4.234233         0.095231         2.011037
 O         2.830293        -0.331754         2.362346
 C         2.253104        -0.901514         1.114670
 H        -0.251049         0.596348         1.065340
 H        -0.717788         0.416731        -0.770372
 H        -0.463682        -0.965414         0.264835
 H         2.576598         1.626919        -0.886103
 H         2.420265         1.779477         1.016416
 H         2.629309        -0.084048        -1.994110
 H         2.634731        -1.778009        -1.319487
 H         4.891909        -0.217004         2.808223
 H         4.327316         1.198694         1.909295
 H         1.987580        -2.025833         1.320062
