19
Iteration:  2930charge 0 multiplicity 1
 C        -0.161958        -0.036467         0.031871
 C         1.392592        -0.045736         0.057881
 C         2.271125         1.127125         0.042742
 C         3.255655        -0.154968         0.123659
 C         2.413263        -0.693665        -1.021693
 O         4.550464        -0.203321         0.700272
 C         4.275715        -0.198129         2.156068
 O         2.827942        -0.279678         2.388406
 C         2.339350        -0.755346         1.133743
 H        -0.605594         0.765962         0.736122
 H        -0.507759         0.401580        -0.932164
 H        -0.505851        -1.064156         0.164493
 H         2.258244         1.748010        -0.860376
 H         2.303308         1.610245         1.039831
 H         2.386765        -0.061785        -2.014143
 H         2.492454        -1.785541        -1.267367
 H         4.776867        -1.080471         2.708280
 H         4.646166         0.781900         2.544598
 H         2.187361        -1.846599         1.384956
