19
Iteration:  4362charge 0 multiplicity 1
 C        -0.174844        -0.049577        -0.017515
 C         1.357861        -0.045829         0.018465
 C         2.388236         1.178850         0.065506
 C         3.255165        -0.167545         0.140213
 C         2.313507        -0.705821        -1.018864
 O         4.612869        -0.216264         0.787308
 C         4.261218        -0.129419         2.174527
 O         2.817779        -0.190703         2.304150
 C         2.346265        -0.896621         1.188850
 H        -0.507869         0.553731         0.960217
 H        -0.790288         0.234141        -0.861675
 H        -0.649225        -1.115551         0.042752
 H         2.456278         1.683568        -0.874532
 H         2.409156         1.775734         0.954039
 H         2.171432        -0.157002        -2.055748
 H         2.154194        -1.753143        -1.236518
 H         4.882191        -0.996507         2.451685
 H         4.625013         0.799559         2.549201
 H         2.308608        -2.061875         1.209993
