19
Iteration:  2869charge 0 multiplicity 1
 C        -0.138816        -0.022117        -0.009931
 C         1.347549        -0.025251         0.014907
 C         2.386708         1.126829         0.118678
 C         3.206519        -0.166078         0.189340
 C         2.324616        -0.683013        -1.071319
 O         4.529703        -0.208703         0.699198
 C         4.285118        -0.093962         2.190551
 O         2.873691        -0.317587         2.346716
 C         2.357386        -0.850720         1.179126
 H        -0.602493         0.476472         0.835075
 H        -0.519641         0.469277        -1.003876
 H        -0.496339        -1.128760         0.015445
 H         2.585999         1.643738        -0.864148
 H         2.467431         1.841926         0.997083
 H         2.267695        -0.204807        -1.998995
 H         2.360692        -1.801162        -1.168308
 H         4.960401        -0.729328         2.712978
 H         4.317986         0.973256         2.476465
 H         1.892119        -1.895177         1.143649
