19
Iteration:  3420
 C        -0.174757        -0.033943         0.025894
 C         1.413746        -0.116405         0.075145
 C         2.315298         1.154785         0.004317
 C         3.273735        -0.124374         0.162948
 C         2.428391        -0.753783        -0.989752
 O         4.478351        -0.114282         0.693725
 C         4.272998        -0.303091         2.104982
 O         2.821005        -0.222444         2.388290
 C         2.395880        -0.730247         1.147996
 H        -0.437869         0.844909         0.653289
 H        -0.613114         0.069005        -0.962693
 H        -0.532349        -0.939080         0.560436
 H         2.231737         1.891476        -0.810279
 H         2.168355         1.720369         0.954610
 H         2.496943        -0.141752        -1.872534
 H         2.336815        -1.871454        -1.305101
 H         4.532124        -1.330630         2.453859
 H         4.699009         0.537750         2.772071
 H         2.142192        -1.847431         1.079832
