19
Iteration:  4542
 C        -0.090162        -0.101478         0.016218
 C         1.447105        -0.071154         0.036796
 C         2.395422         1.133750         0.156769
 C         3.227869        -0.045922         0.136795
 C         2.329077        -0.742422        -0.965807
 O         4.550875        -0.149318         0.672349
 C         4.177457        -0.332305         2.150392
 O         2.813095        -0.127779         2.303935
 C         2.328988        -0.735411         1.130871
 H        -0.532227         0.555357         0.763524
 H        -0.629339         0.123197        -1.020981
 H        -0.392977        -1.124508         0.240800
 H         2.235160         1.701740        -0.751031
 H         2.432193         1.856076         0.915811
 H         2.469080        -0.417979        -1.992554
 H         2.255418        -1.937371        -0.854727
 H         4.381361        -1.408747         2.290797
 H         4.712150         0.316419         2.808881
 H         2.372612        -1.821895         1.246172
