19
Iteration:  4351
 C        -0.209780        -0.032814        -0.037477
 C         1.388146        -0.110916         0.065440
 C         2.344239         1.138890         0.112744
 C         3.262822        -0.145044         0.142978
 C         2.367472        -0.737048        -0.959205
 O         4.556798        -0.192647         0.682941
 C         4.240190        -0.206598         2.171176
 O         2.845126        -0.171358         2.327766
 C         2.348489        -0.785453         1.113856
 H        -0.598559         0.744116         0.744800
 H        -0.540089         0.205069        -1.032813
 H        -0.403827        -1.054483         0.384420
 H         2.455811         1.655747        -0.820364
 H         2.275222         1.869929         0.888724
 H         2.347086        -0.089940        -1.929661
 H         2.368935        -1.804010        -1.139354
 H         4.521573        -1.162696         2.663737
 H         4.690634         0.581716         2.732762
 H         2.468096        -1.913802         1.233883
