19
Iteration:  3437charge 0 multiplicity 1
 C        -0.121362         0.004334         0.011675
 C         1.324054        -0.081175         0.021681
 C         2.287793         1.153703         0.119083
 C         3.204822        -0.086052         0.080086
 C         2.374107        -0.812152        -1.029211
 O         4.614740        -0.101310         0.734455
 C         4.286688        -0.239130         2.180774
 O         2.847539        -0.268613         2.373634
 C         2.288977        -0.796624         1.129855
 H        -0.525985         0.808635         0.606169
 H        -0.413682         0.111705        -1.046604
 H        -0.781864        -0.808364         0.482709
 H         2.404806         1.723225        -0.820723
 H         2.325347         1.808868         0.978808
 H         2.338258        -0.535350        -2.122185
 H         2.433679        -1.852072        -0.897419
 H         4.886356        -1.135074         2.367315
 H         4.698176         0.606240         2.632376
 H         2.411647        -1.863048         1.138714
