19
Iteration:  4990
 C        -0.160578         0.006793        -0.010801
 C         1.397122        -0.031719         0.057191
 C         2.322365         1.081245         0.005296
 C         3.266747        -0.115514         0.150954
 C         2.329869        -0.736568        -1.047334
 O         4.554982        -0.197781         0.686364
 C         4.290300        -0.162454         2.148900
 O         2.825927        -0.289915         2.475686
 C         2.341096        -0.812030         1.151320
 H        -0.571620         0.473953         0.896403
 H        -0.433774         0.726670        -0.902964
 H        -0.585125        -0.963214        -0.288718
 H         2.550512         1.601540        -0.968818
 H         2.085469         1.808303         0.953634
 H         2.394728        -0.089915        -1.952330
 H         2.208858        -1.904573        -0.998419
 H         4.900894        -0.901256         2.722214
 H         4.523279         0.845943         2.488740
 H         2.304923        -1.898122         1.208992
