19
Iteration:    37charge 0 multiplicity 1
 C        -0.229568        -0.155461         0.002788
 C         1.304949         0.011557         0.127147
 C         2.285379         1.226848         0.109824
 C         3.215559        -0.102576         0.112148
 C         2.427992        -0.734776        -0.976146
 O         4.561169        -0.218728         0.692115
 C         4.311108        -0.492214         2.044766
 O         2.920175        -0.041064         2.334504
 C         2.345348        -0.632726         1.208518
 H        -0.842619         0.111092         0.800013
 H        -0.672031         0.313947        -1.044239
 H        -0.365838        -1.286500        -0.079122
 H         2.265882         1.797893        -0.812965
 H         2.352792         1.679944         1.120954
 H         2.515123        -0.146780        -1.938811
 H         2.399021        -1.832108        -1.010619
 H         4.278326        -1.663478         2.271629
 H         4.980832         0.128678         2.671611
 H         2.375697        -1.720900         1.262354
