19
Iteration:  2777charge 0 multiplicity 1
 C        -0.150849         0.046037         0.034774
 C         1.380506        -0.082475         0.080244
 C         2.352732         1.084753         0.160506
 C         3.279692        -0.192346         0.113559
 C         2.398144        -0.777945        -0.978615
 O         4.572677        -0.155423         0.718743
 C         4.215464        -0.099920         2.125076
 O         2.821841        -0.341960         2.332227
 C         2.296262        -0.767718         1.039939
 H        -0.581776         0.641336         0.935747
 H        -0.426958         0.603003        -0.889724
 H        -0.709575        -0.880170         0.015194
 H         2.351514         1.572015        -0.835356
 H         2.437466         1.742825         1.021012
 H         2.475298        -0.138822        -1.935557
 H         2.247249        -1.819095        -1.132395
 H         4.967560        -0.698798         2.669143
 H         4.320276         0.969222         2.376372
 H         2.259483        -1.907643         1.268070
