19
Iteration:  4002charge 0 multiplicity 1
 C        -0.142579        -0.008897        -0.031217
 C         1.355788        -0.173324         0.006717
 C         2.272420         1.168615         0.011501
 C         3.268181        -0.094477         0.155459
 C         2.376262        -0.795066        -0.946690
 O         4.557048        -0.037594         0.661864
 C         4.224022        -0.347715         2.208952
 O         2.906720        -0.241242         2.369008
 C         2.336068        -0.719091         1.165436
 H        -0.544390         0.670738         0.869717
 H        -0.414400         0.375489        -0.987101
 H        -0.705755        -0.976528         0.055310
 H         2.367556         1.856398        -0.842851
 H         2.223559         1.836634         0.874547
 H         2.294518        -0.287465        -1.909291
 H         2.360812        -1.815820        -0.908781
 H         4.578883        -1.366901         2.542146
 H         4.667128         0.299839         2.930726
 H         2.387987        -1.828628         1.250556
