19
Iteration:  4363
 C        -0.167324        -0.058450        -0.012547
 C         1.351082        -0.038819         0.017773
 C         2.392554         1.177948         0.059060
 C         3.257151        -0.169829         0.144271
 C         2.307135        -0.701745        -1.031536
 O         4.614320        -0.216819         0.791835
 C         4.264790        -0.125511         2.171219
 O         2.813982        -0.193263         2.306814
 C         2.347535        -0.897264         1.190791
 H        -0.516883         0.534277         0.960235
 H        -0.780656         0.271248        -0.842951
 H        -0.662194        -1.085986         0.027449
 H         2.447419         1.666534        -0.867938
 H         2.420089         1.749181         0.983356
 H         2.190776        -0.135317        -2.082473
 H         2.143412        -1.802873        -1.211454
 H         4.916859        -0.993582         2.472727
 H         4.595457         0.830117         2.532071
 H         2.276728        -2.048826         1.199031
