19
Iteration:  4185
 C        -0.178903         0.003244         0.005678
 C         1.449573         0.013092         0.021925
 C         2.403029         1.187860         0.175789
 C         3.261479        -0.263716         0.112558
 C         2.375559        -0.792361        -0.997352
 O         4.540344        -0.261429         0.726317
 C         4.168847         0.091392         2.091634
 O         2.823593        -0.402978         2.334121
 C         2.300745        -0.844919         1.108889
 H        -0.434662         0.434664         0.923907
 H        -0.583548         0.644708        -0.732867
 H        -0.525105        -1.084581         0.087050
 H         2.454140         1.828794        -0.725572
 H         2.583615         1.793420         1.074638
 H         2.638729        -0.168182        -1.826950
 H         2.221738        -1.867415        -0.814359
 H         5.068084        -0.307047         2.653763
 H         4.215677         1.227216         2.187301
 H         2.087450        -1.961482         1.186957
