19
Iteration:  3592
 C        -0.103714         0.075316        -0.019944
 C         1.351415        -0.066147         0.115406
 C         2.264045         1.126319         0.077458
 C         3.301365        -0.135952         0.169871
 C         2.418684        -0.772921        -1.003026
 O         4.525659        -0.187984         0.654698
 C         4.275506        -0.009522         2.137060
 O         2.792605        -0.379566         2.404204
 C         2.312987        -0.898728         1.117437
 H        -0.257177         0.930900         0.626247
 H        -0.447596         0.380624        -1.002429
 H        -0.504372        -0.948694         0.353204
 H         2.368933         1.717276        -0.848359
 H         2.262497         1.710843         1.016427
 H         2.359172        -0.232240        -1.916352
 H         2.493442        -1.917846        -1.093673
 H         5.036770        -0.757318         2.591335
 H         4.446599         1.086565         2.547131
 H         2.216675        -2.059153         0.869307
