19
Iteration:   610
 C        -0.125549         0.035352         0.098106
 C         1.438792        -0.062352         0.128581
 C         2.412697         1.105239         0.216833
 C         3.251215        -0.162332         0.171340
 C         2.327309        -0.698266        -0.994455
 O         4.533786        -0.354466         0.675039
 C         4.193616         0.077482         1.947829
 O         2.811071        -0.374177         2.286493
 C         2.342954        -0.812473         1.088582
 H        -0.348021         0.744454         0.930460
 H        -0.603651         0.337174        -0.760498
 H        -0.549042        -0.922568         0.298239
 H         2.385602         1.810858        -0.636675
 H         2.401224         1.744999         1.168447
 H         2.417760        -0.192211        -1.977196
 H         2.291067        -1.801262        -0.958286
 H         4.879140        -0.393792         2.608340
 H         4.264470         1.141552         2.177480
 H         2.167055        -1.958778         1.092725
