19
Iteration:   124
 C        -0.027789         0.085197         0.129694
 C         1.379949        -0.144219         0.122087
 C         2.276485         1.167742         0.165737
 C         3.268791        -0.118457         0.038690
 C         2.326870        -0.798685        -1.036848
 O         4.555409        -0.155824         0.669915
 C         4.229240        -0.210468         2.076911
 O         2.797618        -0.276498         2.381875
 C         2.358147        -0.810692         1.069335
 H        -0.167219         0.876125         0.709928
 H        -0.313582         0.353833        -1.018370
 H        -0.688977        -0.799344         0.163347
 H         2.130490         1.817179        -0.749246
 H         2.299483         1.600804         1.255404
 H         2.292422        -0.335846        -2.085179
 H         2.404595        -1.901715        -0.884564
 H         4.699252        -1.004882         2.636589
 H         4.504784         0.820094         2.436843
 H         2.364295        -1.898840         1.132461
