19
Iteration:  3824
 C        -0.136779        -0.068754        -0.032773
 C         1.356993        -0.077345         0.030332
 C         2.346711         1.164550         0.148136
 C         3.230625        -0.202471         0.131359
 C         2.421544        -0.720277        -0.941332
 O         4.516624        -0.221737         0.673111
 C         4.320580        -0.132739         2.079962
 O         2.854539        -0.257672         2.382912
 C         2.239062        -0.734361         1.152238
 H        -0.521869         0.604131         0.682264
 H        -0.487592         0.347786        -1.046027
 H        -0.672467        -1.105899         0.014076
 H         2.482394         1.789730        -0.714971
 H         2.291689         1.565306         1.157085
 H         2.456267        -0.071097        -1.828723
 H         2.505529        -1.711162        -1.364657
 H         4.847974        -0.894367         2.736037
 H         4.439623         0.895234         2.516138
 H         2.288848        -1.838172         1.351167
