19
Iteration:   326
 C        -0.164362        -0.114170        -0.016010
 C         1.318531         0.019206         0.155799
 C         2.339732         1.165258         0.132918
 C         3.249843        -0.061105         0.145634
 C         2.403920        -0.752369        -0.935293
 O         4.526661        -0.198440         0.627284
 C         4.269900        -0.408589         2.063612
 O         2.898259        -0.089057         2.317851
 C         2.298605        -0.717911         1.173586
 H        -0.920217         0.375531         0.713576
 H        -0.482254         0.145908        -0.976271
 H        -0.205886        -1.170488         0.164103
 H         2.191258         1.682918        -0.733502
 H         2.512394         1.816730         0.963623
 H         2.393493        -0.305100        -1.886227
 H         2.343435        -1.781983        -0.939688
 H         4.284224        -1.487373         2.298379
 H         4.987170         0.191310         2.634509
 H         2.419030        -1.761116         1.208989
