19
Iteration:  4094
 C        -0.086375        -0.061678        -0.028241
 C         1.356058        -0.026334         0.034596
 C         2.331051         1.133064         0.096412
 C         3.254667        -0.164453         0.228466
 C         2.408477        -0.702931        -0.969177
 O         4.496237        -0.208994         0.667721
 C         4.266264        -0.193036         2.089718
 O         2.848222        -0.188010         2.397823
 C         2.276382        -0.819378         1.133560
 H        -0.665724         0.354210         0.713235
 H        -0.522503         0.359159        -0.963842
 H        -0.372474        -1.075612        -0.008915
 H         2.480833         1.780538        -0.796680
 H         2.246951         1.871431         0.920707
 H         2.493214        -0.238776        -1.861100
 H         2.340623        -1.774126        -0.980698
 H         4.852555        -1.055698         2.448690
 H         4.647656         0.760264         2.597406
 H         2.222034        -1.953077         1.074985
