19
Iteration:   904charge 0 multiplicity 1
 C        -0.099443        -0.021089         0.153579
 C         1.397754        -0.021544         0.117009
 C         2.398665         1.188852         0.179939
 C         3.210114        -0.183263         0.109775
 C         2.305904        -0.653443        -1.071713
 O         4.587779        -0.322446         0.679139
 C         4.245975        -0.000954         2.008391
 O         2.807438        -0.392524         2.326629
 C         2.318770        -0.826797         1.127828
 H        -0.537772         0.375988         1.127973
 H        -0.474313         0.538182        -0.685599
 H        -0.416880        -1.048296         0.183582
 H         2.551142         1.721174        -0.787544
 H         2.498449         1.804007         1.053735
 H         2.226197        -0.072386        -2.052004
 H         2.120822        -1.772294        -1.146235
 H         4.861023        -0.393369         2.813248
 H         4.323187         1.143649         2.137587
 H         2.108620        -1.992710         0.977532
