19
Iteration:   585charge 0 multiplicity 1
 C        -0.144501        -0.054956         0.108259
 C         1.366562        -0.015703         0.096587
 C         2.389922         1.153153         0.099943
 C         3.229011        -0.186433         0.157680
 C         2.344051        -0.754046        -1.093414
 O         4.535822        -0.227844         0.614321
 C         4.277118        -0.163264         2.113262
 O         2.870215        -0.252111         2.410586
 C         2.258074        -0.742874         1.085525
 H        -0.486086         0.599941         0.967638
 H        -0.652475         0.364942        -0.842012
 H        -0.457353        -1.069270         0.262027
 H         2.359950         1.845892        -0.738261
 H         2.410384         1.717740         1.072974
 H         2.433016        -0.166473        -1.896271
 H         2.575203        -1.816226        -1.172075
 H         4.954630        -0.974595         2.601612
 H         4.664845         0.776383         2.504941
 H         1.971791        -1.774878         1.236714
