19
Iteration:  3763
 C        -0.158359        -0.117396         0.001054
 C         1.358131        -0.020145        -0.024200
 C         2.326508         1.181607         0.098696
 C         3.232064        -0.131414         0.111312
 C         2.431300        -0.714135        -0.973698
 O         4.560138        -0.164247         0.701133
 C         4.278330        -0.295273         2.140711
 O         2.800643        -0.185358         2.398664
 C         2.296003        -0.792558         1.192750
 H        -0.506652         0.687150         0.766625
 H        -0.531142         0.164795        -1.031307
 H        -0.443168        -1.091716         0.318578
 H         2.349996         1.808335        -0.832961
 H         2.426206         1.967139         0.886787
 H         2.464342        -0.307278        -2.025031
 H         2.428371        -1.831845        -0.854461
 H         4.720340        -1.250327         2.297416
 H         4.712247         0.619009         2.498930
 H         2.350523        -1.839080         1.036747
