19
Iteration:  3072
 C        -0.121428        -0.092872         0.013324
 C         1.330385        -0.042329         0.000019
 C         2.311765         1.091590         0.090686
 C         3.275430        -0.113589         0.126197
 C         2.373875        -0.737345        -0.986215
 O         4.615868        -0.141002         0.717333
 C         4.325022        -0.272011         2.197613
 O         2.820566        -0.253075         2.321526
 C         2.259811        -0.656500         1.171128
 H        -0.668077         0.680309         0.674861
 H        -0.818633         0.088450        -0.869797
 H        -0.737909        -0.981058         0.295240
 H         2.427181         1.602790        -0.836066
 H         2.373306         1.866125         0.856419
 H         2.390733        -0.114246        -1.897221
 H         2.317654        -1.844297        -1.248717
 H         4.702488        -1.235929         2.423312
 H         4.790620         0.538676         2.761939
 H         2.101482        -1.758260         1.080692
