19
Iteration:  3529
 C        -0.071554        -0.073383         0.008718
 C         1.412283        -0.010579         0.124044
 C         2.415692         1.097788         0.137618
 C         3.228635        -0.203881         0.148504
 C         2.361119        -0.680455        -0.992777
 O         4.519285        -0.335801         0.726846
 C         4.217512         0.071720         2.038171
 O         2.803846        -0.310749         2.358794
 C         2.290965        -0.766626         1.061482
 H        -0.499308        -0.245800         1.037521
 H        -0.444560         0.755629        -0.624291
 H        -0.605558        -1.107626        -0.357850
 H         2.603095         1.778036        -0.727997
 H         2.467018         1.571569         1.149038
 H         2.306631         0.084035        -1.751348
 H         2.338222        -1.823862        -1.198193
 H         4.930778        -0.539546         2.584226
 H         4.163223         1.120120         2.259002
 H         2.228666        -1.812459         1.164581
