19
Iteration:  3599
 C        -0.139574         0.044310        -0.023986
 C         1.360887        -0.067326         0.114621
 C         2.312025         1.068427         0.081056
 C         3.242045        -0.134680         0.117385
 C         2.429832        -0.748896        -1.012758
 O         4.547123        -0.162285         0.677781
 C         4.304743        -0.057070         2.074918
 O         2.775479        -0.378990         2.445557
 C         2.321026        -0.828836         1.158765
 H        -0.463516         0.808151         0.716091
 H        -0.273808         0.143556        -1.116922
 H        -0.574108        -0.771501         0.391605
 H         2.542707         1.784440        -0.715548
 H         2.297581         1.703497         0.964206
 H         2.435573        -0.127647        -1.963640
 H         2.314048        -1.783648        -1.178423
 H         4.765109        -0.779747         2.708445
 H         4.332723         0.943165         2.328866
 H         2.402333        -1.920712         0.989413
