19
Iteration:  1456charge 0 multiplicity 1
 C        -0.153518        -0.144896         0.084664
 C         1.356767         0.017128         0.132137
 C         2.352864         1.245103         0.086150
 C         3.226858        -0.175177         0.147693
 C         2.400778        -0.679688        -0.981877
 O         4.497725        -0.260712         0.606001
 C         4.251249        -0.368425         2.139619
 O         2.887596        -0.133728         2.298826
 C         2.290723        -0.653006         1.120408
 H        -0.573460         0.581046         0.832126
 H        -0.551660         0.073867        -0.966263
 H        -0.487370        -1.263245         0.240613
 H         2.537787         1.860442        -0.762141
 H         2.340513         1.761680         1.000421
 H         2.801679        -0.278219        -1.909117
 H         2.277565        -1.817411        -0.911766
 H         4.472073        -1.347280         2.564134
 H         4.924418         0.254069         2.707105
 H         2.295836        -1.740397         1.190324
