19
Iteration:    95
 C        -0.233466         0.018869         0.071977
 C         1.295812        -0.087591         0.038275
 C         2.370700         1.125426        -0.002712
 C         3.179734        -0.128102         0.155909
 C         2.401720        -0.759018        -0.985321
 O         4.548285        -0.006667         0.687914
 C         4.322230        -0.394567         2.156689
 O         2.952135        -0.254511         2.368529
 C         2.239574        -0.782974         1.156351
 H        -0.514407         0.816183         0.935028
 H        -0.548584         0.452212        -0.947967
 H        -0.704790        -0.945486         0.291705
 H         2.491922         1.660662        -0.960897
 H         2.396684         1.932152         0.672748
 H         2.417189        -0.303026        -1.937659
 H         2.598296        -1.854672        -1.125212
 H         4.939915        -1.370494         2.429133
 H         4.870272         0.430784         2.666188
 H         2.044347        -1.882016         1.195665
