19
Iteration:  4700
 C        -0.162548        -0.017668         0.028086
 C         1.421275        -0.038492         0.079961
 C         2.448908         1.142976         0.068777
 C         3.282714        -0.164497         0.158340
 C         2.286889        -0.730909        -1.075104
 O         4.598297        -0.214677         0.686804
 C         4.255685        -0.001061         2.149708
 O         2.779764        -0.418518         2.425748
 C         2.290247        -0.807539         1.125288
 H        -0.748408         0.733542         0.630164
 H        -0.438048         0.215327        -0.952202
 H        -0.492857        -1.013530         0.434406
 H         2.391630         1.839473        -0.893447
 H         2.423711         1.870256         0.958594
 H         2.320677        -0.213162        -2.159366
 H         2.254379        -1.824369        -1.294636
 H         4.876144        -0.646778         2.732277
 H         4.259796         1.079473         2.439199
 H         2.144415        -1.855197         1.101738
