19
Iteration:  3030
 C        -0.058925        -0.014658        -0.059330
 C         1.426464        -0.123652         0.139126
 C         2.300338         1.145834         0.075115
 C         3.231491        -0.138171         0.166947
 C         2.381526        -0.762014        -0.933732
 O         4.541355        -0.017660         0.635961
 C         4.278672        -0.346062         2.099383
 O         2.800676        -0.241663         2.388297
 C         2.295095        -0.747390         1.140012
 H        -0.433401         0.720305         0.786117
 H        -0.370871         0.637340        -0.951734
 H        -0.683596        -0.925055        -0.091144
 H         2.332297         1.588063        -0.940537
 H         2.138103         1.746616         1.015244
 H         2.356090        -0.486247        -1.984567
 H         2.339928        -1.955622        -0.989805
 H         4.713240        -1.357453         2.406024
 H         4.647741         0.537281         2.666878
 H         2.148553        -1.858683         1.379953
