19
Iteration:  2263
 C        -0.206783        -0.006294         0.056352
 C         1.326125         0.008361         0.088068
 C         2.381957         1.135088         0.132560
 C         3.233640        -0.167783         0.136613
 C         2.390086        -0.792914        -1.035043
 O         4.600867        -0.313627         0.641714
 C         4.214453        -0.089171         2.060651
 O         2.833766        -0.266822         2.364787
 C         2.336231        -0.714900         1.175530
 H        -0.596465         0.531212         0.982237
 H        -0.692987         0.370478        -0.827169
 H        -0.459890        -1.047204         0.275407
 H         2.605274         1.769268        -0.715155
 H         2.521234         1.730945         1.048151
 H         2.681922        -0.156840        -1.850177
 H         2.309539        -1.899135        -1.306264
 H         4.677371        -0.865268         2.634657
 H         4.578234         0.885330         2.338088
 H         2.226367        -1.846789         1.150925
