19
Iteration:  1405charge 0 multiplicity 1
 C        -0.166515         0.054793         0.141420
 C         1.403861        -0.016174         0.104161
 C         2.345287         1.114171        -0.005405
 C         3.215243        -0.153353         0.119041
 C         2.418512        -0.824230        -1.030949
 O         4.499830        -0.009659         0.738218
 C         4.312797        -0.385496         2.114398
 O         2.870806        -0.222533         2.285268
 C         2.277002        -0.800285         1.131812
 H        -0.452187         0.731137         0.999974
 H        -0.694249         0.475274        -0.705252
 H        -0.465149        -0.919011         0.290728
 H         2.362369         1.663564        -0.999102
 H         2.524935         1.858319         0.896534
 H         2.261370        -0.252436        -1.970870
 H         2.287669        -1.907538        -0.966692
 H         4.583256        -1.477817         2.390865
 H         4.836510         0.254695         2.819185
 H         2.067129        -1.918808         1.185401
