19
Iteration:  4528
 C        -0.135994        -0.132024         0.015179
 C         1.333970         0.020687         0.125894
 C         2.372542         1.219531         0.091780
 C         3.302062        -0.183658         0.111007
 C         2.415982        -0.731884        -0.985751
 O         4.523424        -0.175776         0.642100
 C         4.211944        -0.303413         2.170743
 O         2.807593        -0.148540         2.353950
 C         2.322082        -0.732785         1.108175
 H        -0.699191         0.641780         0.708390
 H        -0.449720        -0.104778        -1.095069
 H        -0.406967        -1.171272         0.341669
 H         2.513188         1.780231        -0.802534
 H         2.426206         1.613311         1.086989
 H         2.423270        -0.211827        -1.927819
 H         2.392028        -1.833768        -1.099564
 H         4.599243        -1.326816         2.536092
 H         4.732251         0.492704         2.712807
 H         2.214790        -1.900176         1.169950
