19
Iteration:  4997charge 0 multiplicity 1
 C        -0.143061         0.050689        -0.009945
 C         1.354562        -0.096437         0.013191
 C         2.323696         1.173156        -0.000944
 C         3.274370        -0.097454         0.147471
 C         2.364958        -0.767873        -1.024720
 O         4.588340        -0.213732         0.682572
 C         4.262348        -0.147055         2.153365
 O         2.838420        -0.332880         2.507783
 C         2.305359        -0.817074         1.146905
 H        -0.581260         0.412433         0.989751
 H        -0.321513         0.625861        -0.896280
 H        -0.750863        -0.858045        -0.055374
 H         2.324559         1.637271        -0.960080
 H         2.272042         1.822322         0.839354
 H         2.279539        -0.276334        -1.950964
 H         2.287626        -1.772016        -1.181437
 H         4.914923        -0.832803         2.688231
 H         4.355272         1.002018         2.394110
 H         2.402537        -1.938852         1.202024
