19
Iteration:  1581charge 0 multiplicity 1
 C        -0.083195         0.011238         0.104717
 C         1.389536         0.046805         0.111753
 C         2.465435         1.143825         0.127703
 C         3.276812        -0.221184         0.101645
 C         2.298792        -0.678713        -1.022158
 O         4.606009        -0.417755         0.661009
 C         4.142765         0.064014         2.040981
 O         2.787195        -0.353655         2.352588
 C         2.301954        -0.811226         1.120525
 H        -0.306506         0.473180         1.125644
 H        -0.694847         0.390401        -0.736053
 H        -0.342620        -0.989258         0.429871
 H         2.474091         1.864270        -0.750436
 H         2.345126         1.679911         1.104343
 H         2.361995        -0.264867        -2.078165
 H         2.190377        -1.768834        -1.135965
 H         4.855685        -0.357812         2.749578
 H         4.089395         1.108587         2.024774
 H         2.148602        -1.805547         1.236778
