19
Iteration:  2349
 C        -0.106969         0.028510        -0.046214
 C         1.407456        -0.012681         0.106302
 C         2.248634         1.205257         0.001409
 C         3.225214        -0.172163         0.155076
 C         2.359254        -0.814174        -0.972535
 O         4.521273        -0.150961         0.617983
 C         4.399079        -0.162341         2.113243
 O         2.837927        -0.314105         2.449323
 C         2.285841        -0.822369         1.191710
 H        -0.418949         0.509229         0.830877
 H        -0.435538         0.615950        -0.843356
 H        -0.614864        -0.928563        -0.039277
 H         2.520555         1.638364        -1.040541
 H         2.193967         1.921020         0.913539
 H         2.304302        -0.481302        -1.983463
 H         2.023930        -1.882234        -0.884119
 H         4.652173        -1.103367         2.548525
 H         4.918789         0.684352         2.751432
 H         2.201980        -1.875035         1.295277
