19
Iteration:   547charge 0 multiplicity 1
 C        -0.157722        -0.053852         0.011440
 C         1.379643        -0.094092         0.157323
 C         2.327089         1.177487         0.053343
 C         3.274012        -0.005048         0.060486
 C         2.320437        -0.834483        -0.912862
 O         4.530539        -0.076481         0.641556
 C         4.239430        -0.451804         2.127595
 O         2.935662        -0.146462         2.396847
 C         2.322518        -0.670281         1.157798
 H        -0.712599         0.311336         0.886011
 H        -0.439506         0.505236        -0.907908
 H        -0.533366        -1.172613        -0.144237
 H         2.257932         1.658735        -0.931774
 H         2.322550         1.895141         0.868912
 H         2.211969        -0.549089        -2.079771
 H         2.377777        -1.924084        -0.964206
 H         4.225633        -1.540797         2.016064
 H         5.042175         0.010261         2.782408
 H         2.243046        -1.768998         1.217513
