19
Iteration:  4209charge 0 multiplicity 1
 C        -0.068521        -0.023942         0.078752
 C         1.440999        -0.142703         0.081700
 C         2.394412         1.086733         0.092267
 C         3.237596        -0.121936         0.129683
 C         2.297149        -0.707755        -1.092224
 O         4.583349        -0.301975         0.713730
 C         4.171685        -0.012323         2.135974
 O         2.754869        -0.272931         2.335560
 C         2.312962        -0.765582         1.137945
 H        -0.565961         0.215829         1.033629
 H        -0.278753         0.689326        -0.614904
 H        -0.337368        -1.022483        -0.203987
 H         2.583551         1.603562        -0.820130
 H         2.410641         1.760655         0.899125
 H         2.258959         0.070578        -1.919904
 H         2.477463        -1.753626        -1.030839
 H         4.832425        -0.644012         2.742525
 H         4.407346         1.012410         2.342549
 H         2.275125        -1.834524         1.226812
