19
Iteration:  1778
 C        -0.071861         0.090869         0.060635
 C         1.448096        -0.128588         0.116964
 C         2.342839         1.105348         0.081723
 C         3.245829        -0.196812         0.157183
 C         2.295351        -0.755033        -0.993609
 O         4.565506        -0.167418         0.516675
 C         4.215033        -0.186860         2.193294
 O         2.804026        -0.223672         2.419988
 C         2.330852        -0.804353         1.113220
 H        -0.472495         0.831494         0.760465
 H        -0.338299         0.611188        -0.892981
 H        -0.571959        -0.898640        -0.025291
 H         2.468515         1.736253        -0.822202
 H         2.368371         1.658587         0.972725
 H         2.163041        -0.203175        -1.915879
 H         2.105592        -1.854189        -0.975703
 H         4.733613        -1.114560         2.540625
 H         4.667399         0.646124         2.651401
 H         2.205991        -1.993856         1.179584
