19
Iteration:  4026charge 0 multiplicity 1
 C        -0.113854        -0.060503         0.087740
 C         1.373634        -0.100507         0.087562
 C         2.367643         1.133818         0.041698
 C         3.258716        -0.124999         0.130306
 C         2.455036        -0.798415        -1.036883
 O         4.534898        -0.032668         0.750867
 C         4.244843        -0.357883         2.033907
 O         2.784426        -0.120224         2.385110
 C         2.274755        -0.758361         1.131693
 H        -0.714547         0.233344         0.992775
 H        -0.453134         0.449162        -0.812903
 H        -0.396186        -1.053292        -0.137339
 H         2.466421         1.706350        -0.914223
 H         2.362984         1.912990         0.825463
 H         2.402489        -0.260262        -1.918039
 H         2.516760        -1.838720        -1.126734
 H         4.217761        -1.408329         2.376439
 H         4.942780         0.066349         2.788948
 H         2.130378        -1.888380         1.253961
