19
Iteration:  3664
 C        -0.110984        -0.147476        -0.015801
 C         1.333619        -0.065021         0.034702
 C         2.353412         1.168617         0.089153
 C         3.229881        -0.081063         0.177955
 C         2.457530        -0.662380        -0.996201
 O         4.509605        -0.273599         0.627212
 C         4.243943        -0.227575         2.184968
 O         2.857810        -0.163096         2.394175
 C         2.269854        -0.772381         1.166430
 H        -0.531168         0.337599         1.000098
 H        -0.551419         0.493876        -0.968380
 H        -0.353011        -1.257129        -0.099832
 H         2.510496         1.719949        -0.878323
 H         2.269566         1.832377         0.983239
 H         2.336574        -0.072368        -1.963269
 H         2.397534        -1.741092        -0.998442
 H         4.765017        -1.099815         2.579843
 H         4.701516         0.711988         2.398952
 H         2.162424        -1.832664         1.125064
