19
Iteration:  2091
 C        -0.202662         0.096353         0.046427
 C         1.341377        -0.110144         0.129066
 C         2.345838         1.103297         0.075711
 C         3.210030        -0.106991         0.176979
 C         2.354677        -0.804522        -1.054919
 O         4.535447        -0.184867         0.658333
 C         4.294369        -0.242919         2.183351
 O         2.918965        -0.173632         2.317771
 C         2.303932        -0.851212         1.124047
 H        -0.470922         0.770608         0.881221
 H        -0.511267         0.491514        -0.889183
 H        -0.744018        -0.788115         0.154122
 H         2.683285         1.562764        -0.876127
 H         2.373422         1.734102         0.937596
 H         2.240719        -0.215766        -1.924486
 H         2.293735        -1.894433        -1.154153
 H         4.906463        -1.142973         2.703139
 H         4.591358         0.767357         2.442528
 H         2.509264        -1.898061         1.152907
