19
Iteration:  2638
 C        -0.122132        -0.000260         0.016561
 C         1.347777        -0.007444         0.044465
 C         2.306684         1.110970         0.088153
 C         3.257162        -0.222209         0.097961
 C         2.311333        -0.767988        -1.012994
 O         4.598271        -0.154646         0.729739
 C         4.264115        -0.114593         2.173315
 O         2.817517        -0.317182         2.355327
 C         2.374563        -0.771232         1.122617
 H        -0.432345         0.316987         1.034370
 H        -0.309083         0.772754        -0.790652
 H        -0.594587        -0.928759        -0.230183
 H         2.356484         1.761893        -0.879322
 H         2.340886         1.789184         1.026407
 H         2.375918        -0.419444        -2.079523
 H         1.993001        -1.835247        -0.845031
 H         4.751859        -1.045747         2.565967
 H         4.758179         0.896872         2.582819
 H         2.149232        -1.831156         1.107528
