19
Iteration:  4652
 C        -0.106547        -0.094807        -0.060050
 C         1.361197        -0.066161         0.090668
 C         2.303396         1.133478         0.162526
 C         3.238351        -0.200631         0.106064
 C         2.421877        -0.654622        -1.032154
 O         4.549802        -0.291528         0.676391
 C         4.284242        -0.172585         2.094737
 O         2.822947        -0.145216         2.416212
 C         2.277052        -0.758417         1.157766
 H        -0.554337         0.438396         0.738385
 H        -0.477367         0.501877        -0.941368
 H        -0.429392        -1.122010         0.197086
 H         2.430768         1.786045        -0.634902
 H         2.326340         1.765046         1.057016
 H         2.384377        -0.156508        -1.939337
 H         2.341195        -1.708888        -1.280532
 H         4.775271        -1.017005         2.598550
 H         4.650131         0.830914         2.429275
 H         2.148320        -1.908991         1.273912
