19
Iteration:  2574charge 0 multiplicity 1
 C        -0.082747        -0.101754         0.042906
 C         1.415042        -0.049619         0.013842
 C         2.280466         1.167087         0.144959
 C         3.219468        -0.108646         0.117087
 C         2.309679        -0.672121        -1.045966
 O         4.547966        -0.303799         0.753997
 C         4.324184        -0.143216         2.114968
 O         2.872857        -0.250716         2.308441
 C         2.287743        -0.736414         1.127629
 H        -0.406572         0.643145         0.715220
 H        -0.579394         0.199361        -0.910777
 H        -0.663640        -0.944266         0.284714
 H         2.574693         1.703090        -0.761480
 H         2.280685         1.860923         1.018778
 H         2.191824        -0.279810        -2.093255
 H         2.384745        -1.797434        -0.889731
 H         4.615206        -0.995737         2.744706
 H         4.589575         0.735761         2.684560
 H         2.151726        -1.861284         1.233406
