19
Iteration:   320
 C        -0.181068        -0.157651        -0.003125
 C         1.345611         0.014348         0.191513
 C         2.384309         1.231387         0.103655
 C         3.230440        -0.099922         0.102172
 C         2.418668        -0.738834        -0.986435
 O         4.521731        -0.171323         0.627855
 C         4.240399        -0.458528         2.069917
 O         2.899165        -0.069652         2.348584
 C         2.295144        -0.698980         1.213816
 H        -0.833477         0.347220         0.687839
 H        -0.512768         0.071008        -1.071980
 H        -0.408591        -1.255012         0.299721
 H         2.350047         1.877287        -0.897015
 H         2.435346         1.834135         1.064569
 H         2.312365        -0.266316        -2.036181
 H         2.317825        -1.903747        -0.949017
 H         4.402912        -1.551867         2.322006
 H         4.961716         0.137717         2.678706
 H         2.354592        -1.863770         1.194290
