19
Iteration:  3510charge 0 multiplicity 1
 C        -0.170042        -0.103950        -0.015431
 C         1.407776        -0.031597         0.051651
 C         2.370404         1.203044         0.198595
 C         3.250400        -0.102288         0.166774
 C         2.349519        -0.687898        -1.099997
 O         4.574888        -0.402976         0.721116
 C         4.250453         0.027983         2.071052
 O         2.814283        -0.289347         2.364531
 C         2.300400        -0.801650         1.165167
 H        -0.660028        -0.143867         0.995085
 H        -0.608094         0.716486        -0.621522
 H        -0.600750        -0.972533        -0.367900
 H         2.468358         1.911778        -0.639341
 H         2.379937         1.741356         1.155498
 H         2.607698        -0.446614        -2.172264
 H         2.246692        -1.769615        -0.952025
 H         4.936352        -0.522283         2.706494
 H         4.465551         1.089358         1.953699
 H         2.345088        -1.920310         1.333254
