19
Iteration:   387charge 0 multiplicity 1
 C        -0.143122         0.105043         0.075061
 C         1.401596        -0.077649         0.078480
 C         2.425115         1.148170         0.118659
 C         3.216905        -0.195395         0.171293
 C         2.322875        -0.805804        -0.954361
 O         4.611244        -0.183698         0.633725
 C         4.210783         0.042481         2.069543
 O         2.873164        -0.429931         2.306861
 C         2.248153        -0.858911         1.178493
 H        -0.442132         0.368097         1.046204
 H        -0.456361         0.927559        -0.727331
 H        -0.743876        -0.777466        -0.317059
 H         2.416482         1.651430        -0.973043
 H         2.461026         1.776050         1.006909
 H         2.161499        -0.284886        -1.943119
 H         2.156427        -2.008236        -0.979917
 H         4.924602        -0.565490         2.730394
 H         4.389386         1.121154         2.305278
 H         2.114835        -2.037352         1.169701
