19
Iteration:  4903
 C        -0.172422        -0.078086         0.012377
 C         1.334872        -0.019299         0.019592
 C         2.337855         1.184957        -0.045539
 C         3.264140        -0.076989         0.154127
 C         2.406726        -0.774908        -0.932217
 O         4.569369        -0.071282         0.717591
 C         4.241860        -0.411603         2.133966
 O         2.848328        -0.221859         2.419536
 C         2.318855        -0.715060         1.172718
 H        -0.533981         0.505407         0.772009
 H        -0.623053         0.162540        -0.985092
 H        -0.563244        -1.004958         0.350767
 H         2.330091         1.689541        -1.012410
 H         2.439408         1.828037         0.904055
 H         2.484520        -0.264710        -1.934748
 H         2.252588        -1.915969        -1.186260
 H         4.591048        -1.466967         2.243184
 H         4.734840         0.290522         2.660961
 H         2.337806        -1.773591         1.032919
