19
Iteration:  1623
 C        -0.179997         0.049755         0.024831
 C         1.374673        -0.021360         0.051705
 C         2.315979         1.105093         0.099726
 C         3.211995        -0.142785         0.095162
 C         2.342595        -0.712564        -0.974283
 O         4.678042        -0.318694         0.621375
 C         4.293369        -0.093803         2.101001
 O         2.810432        -0.291406         2.407326
 C         2.276342        -0.768274         1.207010
 H        -0.508423         0.566287         1.022116
 H        -0.590648         0.429513        -0.928462
 H        -0.554794        -0.952556         0.038298
 H         2.330520         1.611531        -0.814515
 H         2.568926         1.752247         0.941288
 H         2.261440        -0.295498        -2.009282
 H         2.307364        -1.768092        -1.068885
 H         4.765700        -0.843309         2.713927
 H         4.605609         0.881733         2.442929
 H         2.295853        -1.959632         1.155047
