19
Iteration:  3791charge 0 multiplicity 1
 C        -0.100791        -0.188128        -0.051622
 C         1.362038         0.019438         0.078054
 C         2.346206         1.222915         0.112444
 C         3.288766        -0.163039         0.107607
 C         2.321774        -0.684655        -0.924509
 O         4.527522        -0.265538         0.679763
 C         4.190943        -0.229374         2.180203
 O         2.855340        -0.194378         2.354385
 C         2.339308        -0.727525         1.148333
 H        -0.591298         0.567430         0.460301
 H        -0.233772        -0.120428        -1.142556
 H        -0.458033        -1.212593         0.320707
 H         2.351650         1.897110        -0.747838
 H         2.463241         1.817885         1.019137
 H         2.223539        -0.087310        -1.866509
 H         2.136100        -1.689584        -1.224450
 H         4.904815        -1.034248         2.579534
 H         4.695730         0.729409         2.500135
 H         2.316082        -1.846194         0.967067
