19
Iteration:  1688charge 0 multiplicity 1
 C        -0.177599        -0.043850        -0.022050
 C         1.298068        -0.044257         0.084995
 C         2.416566         1.145642         0.046831
 C         3.245378        -0.150209         0.132966
 C         2.312609        -0.788691        -0.944518
 O         4.580323        -0.082524         0.680506
 C         4.245323        -0.410823         2.071694
 O         2.896179        -0.131168         2.365739
 C         2.327796        -0.688899         1.221464
 H        -0.628982         0.485199         0.875914
 H        -0.620914         0.407294        -0.909838
 H        -0.474047        -1.047123        -0.114055
 H         2.421298         1.766841        -0.778452
 H         2.594987         1.777530         0.913790
 H         2.194414        -0.402702        -1.976804
 H         2.211800        -1.846416        -0.923512
 H         4.449084        -1.499090         2.156901
 H         4.910844         0.090455         2.787564
 H         2.217697        -1.869622         1.346561
