19
Iteration:  2664
 C        -0.218806        -0.018970         0.007338
 C         1.364097        -0.078546         0.061944
 C         2.382818         1.127460         0.032931
 C         3.224946        -0.105057         0.167482
 C         2.444269        -0.697859        -0.967842
 O         4.498887        -0.271388         0.684584
 C         4.305025        -0.087343         2.113962
 O         2.831821        -0.291997         2.387202
 C         2.307565        -0.767189         1.189585
 H        -0.637197         0.273035         0.918168
 H        -0.307342         0.598914        -0.848743
 H        -0.646982        -0.994512        -0.305792
 H         2.431033         1.713795        -0.828246
 H         2.407887         1.754501         0.891598
 H         2.427582        -0.083228        -1.860304
 H         2.299393        -1.823909        -1.122608
 H         4.752624        -1.102172         2.405556
 H         4.811325         0.784194         2.533886
 H         2.362717        -1.920784         1.022108
