19
Iteration:  4028
 C        -0.124918        -0.067799         0.102573
 C         1.395580        -0.106904         0.087174
 C         2.372376         1.147760         0.035178
 C         3.239748        -0.133634         0.140930
 C         2.456562        -0.784435        -1.028190
 O         4.544593        -0.035110         0.755306
 C         4.225438        -0.357721         2.030103
 O         2.788020        -0.122894         2.364120
 C         2.258892        -0.741953         1.132793
 H        -0.620484         0.192778         0.976576
 H        -0.426349         0.450510        -0.843875
 H        -0.356214        -1.060916        -0.175077
 H         2.498628         1.724517        -0.914211
 H         2.362076         1.886511         0.880985
 H         2.339374        -0.291518        -1.974816
 H         2.534953        -1.914371        -1.153159
 H         4.287569        -1.448000         2.363336
 H         4.951297         0.081036         2.811156
 H         2.135932        -1.884305         1.327758
