19
Iteration:  1145charge 0 multiplicity 1
 C        -0.138270        -0.115260         0.043025
 C         1.371084         0.049283         0.164389
 C         2.345277         1.139448         0.197652
 C         3.234840        -0.139956         0.128844
 C         2.255384        -0.572201        -1.023477
 O         4.635276        -0.319962         0.606252
 C         4.286052        -0.207431         2.079572
 O         2.845626        -0.249804         2.335567
 C         2.305457        -0.777902         1.166569
 H        -0.799940         0.446248         0.823500
 H        -0.419611         0.305163        -0.937288
 H        -0.379212        -1.213757         0.047614
 H         2.305507         1.790585        -0.669406
 H         2.433784         1.778669         1.096281
 H         2.446568         0.004230        -2.030533
 H         2.211808        -1.717793        -1.202093
 H         4.621043        -1.101471         2.648839
 H         4.755321         0.773495         2.242847
 H         2.130135        -1.805778         1.047456
