19
Iteration:  1970charge 0 multiplicity 1
 C        -0.199629        -0.027259         0.058244
 C         1.288733        -0.042641         0.133024
 C         2.376574         1.139111         0.095769
 C         3.218238        -0.167254         0.122488
 C         2.465093        -0.781538        -1.000365
 O         4.656430        -0.205622         0.606072
 C         4.230055        -0.287348         2.104764
 O         2.860727        -0.153167         2.340786
 C         2.245259        -0.708265         1.153911
 H        -0.384842         0.417370         1.092188
 H        -0.548089         0.692792        -0.666588
 H        -0.688299        -0.968578        -0.057059
 H         2.255990         1.794279        -0.815620
 H         2.419665         1.854758         0.985759
 H         2.505471        -0.445459        -2.043855
 H         2.204941        -1.851525        -0.968109
 H         4.594168        -1.231489         2.356069
 H         4.631300         0.470243         2.754101
 H         2.162688        -1.828687         1.407773
