19
Iteration:  2221charge 0 multiplicity 1
 C        -0.117683         0.121400        -0.036032
 C         1.370247        -0.071810         0.050600
 C         2.382257         1.105584         0.018276
 C         3.245740        -0.208096         0.124592
 C         2.289063        -0.769560        -0.925096
 O         4.538668        -0.182707         0.681214
 C         4.235890        -0.044840         2.052583
 O         2.883347        -0.434095         2.483458
 C         2.361373        -0.775845         1.139107
 H        -0.298198         0.871763         0.902685
 H        -0.616093         0.611063        -0.913506
 H        -0.659170        -0.803494         0.246125
 H         2.278548         1.700166        -0.819855
 H         2.355072         1.684028         0.891595
 H         2.071271        -0.272891        -1.855796
 H         2.011104        -1.843782        -1.029753
 H         4.971481        -0.796916         2.583748
 H         4.270746         0.965240         2.395043
 H         2.579631        -1.880805         1.092131
