19
Iteration:   300charge 0 multiplicity 1
 C        -0.097606        -0.234217         0.084588
 C         1.337618        -0.025614        -0.022502
 C         2.392655         1.184565         0.024538
 C         3.261476        -0.089279         0.170144
 C         2.262434        -0.685383        -0.988363
 O         4.545354        -0.119140         0.699942
 C         4.275429        -0.484397         2.065910
 O         2.903782        -0.140015         2.424056
 C         2.259617        -0.569346         1.171948
 H        -0.582320         0.514262         0.619354
 H        -0.501211        -0.084037        -0.999468
 H        -0.363640        -1.170579         0.575041
 H         2.477054         1.737116        -1.040679
 H         2.493734         1.866176         0.895240
 H         2.397816        -0.060611        -1.914913
 H         2.220811        -1.859799        -1.178671
 H         4.271459        -1.533497         2.150349
 H         5.004571        -0.056485         2.729630
 H         2.012478        -1.691018         1.322260
