19
Iteration:  1435
 C        -0.099479        -0.084893         0.113014
 C         1.427412        -0.034010         0.091632
 C         2.369953         1.168169         0.058625
 C         3.309713        -0.069531         0.116048
 C         2.272182        -0.718604        -1.024921
 O         4.649073        -0.199819         0.594644
 C         4.135342        -0.357617         2.173322
 O         2.836774        -0.132811         2.377910
 C         2.304987        -0.722506         1.120372
 H        -0.526942         0.625427         0.919848
 H        -0.652675        -0.008886        -0.892979
 H        -0.498154        -1.133612         0.417655
 H         2.449251         1.741876        -0.871550
 H         2.363781         1.744358         1.003399
 H         1.925449        -0.246166        -1.992776
 H         2.209625        -1.894602        -1.147149
 H         4.352330        -1.432692         2.336694
 H         4.775993         0.158647         2.887801
 H         2.109919        -1.735593         1.211099
