19
Iteration:   288charge 0 multiplicity 1
 C        -0.156780        -0.113992         0.055836
 C         1.391207         0.063508         0.036143
 C         2.355729         1.164837        -0.038036
 C         3.215182        -0.079612         0.152992
 C         2.337538        -0.708345        -0.964261
 O         4.557455        -0.090639         0.722392
 C         4.259908        -0.532067         2.098379
 O         2.897777        -0.137995         2.394316
 C         2.294751        -0.688397         1.171201
 H        -0.597535         0.480164         0.771957
 H        -0.873236        -0.471949        -0.767640
 H        -0.037635        -1.118341         0.524948
 H         2.415439         1.766539        -1.079067
 H         2.162343         1.893610         0.819722
 H         2.329034        -0.297230        -2.047878
 H         2.092126        -1.877700        -1.028165
 H         4.482810        -1.557545         2.155638
 H         4.894085         0.091717         2.739718
 H         2.396101        -1.846677         1.113254
