19
Iteration:   696charge 0 multiplicity 1
 C        -0.168226        -0.012242        -0.006461
 C         1.313690        -0.106701         0.122777
 C         2.336318         1.160546         0.085328
 C         3.227239        -0.082646         0.166356
 C         2.319786        -0.726391        -0.987197
 O         4.534681        -0.256596         0.637786
 C         4.337248        -0.172866         2.079405
 O         2.882857        -0.257967         2.380515
 C         2.357523        -0.772567         1.160883
 H        -0.696744         0.361167         0.983976
 H        -0.426390         0.804543        -0.775845
 H        -0.601906        -0.996636        -0.186658
 H         2.428811         1.842638        -0.798106
 H         2.335360         1.757983         1.072003
 H         2.154342        -0.291718        -1.920246
 H         2.303333        -1.810991        -1.032479
 H         4.858985        -1.117088         2.483934
 H         4.790473         0.753051         2.575832
 H         2.405284        -1.860882         1.065197
