19
Iteration:  1518
 C        -0.135203         0.108938        -0.052884
 C         1.350540        -0.119741         0.173895
 C         2.441652         1.073097         0.133787
 C         3.156420        -0.140541         0.143278
 C         2.263209        -0.789456        -0.983077
 O         4.541937        -0.172989         0.622817
 C         4.394020        -0.099947         2.098677
 O         2.818883        -0.310448         2.358656
 C         2.299141        -0.808065         1.169090
 H        -0.489286         0.517557         0.846641
 H        -0.428995         0.868986        -0.730093
 H        -0.634071        -0.863055        -0.222191
 H         2.463594         1.777144        -0.780396
 H         2.446551         1.600551         1.069231
 H         2.361815        -0.392197        -2.017322
 H         2.348125        -1.848134        -0.769185
 H         4.935371        -0.981160         2.574384
 H         4.731478         0.967876         2.433650
 H         2.166721        -1.950692         0.912548
