19
Iteration:  3191
 C        -0.161063         0.052847        -0.015806
 C         1.341147        -0.112075         0.027506
 C         2.354365         1.081941         0.156355
 C         3.290301        -0.155444         0.120844
 C         2.390843        -0.779763        -1.006022
 O         4.495728        -0.201987         0.719050
 C         4.245369        -0.022720         2.112692
 O         2.885064        -0.339435         2.378460
 C         2.348890        -0.810783         1.137810
 H        -0.678397         0.492571         0.909775
 H        -0.505090         0.750429        -0.820698
 H        -0.695774        -0.899212        -0.244601
 H         2.428834         1.897571        -0.574906
 H         2.215525         1.655509         1.065320
 H         2.288375        -0.299421        -1.956892
 H         2.352405        -1.848393        -1.097380
 H         4.964591        -0.683032         2.631866
 H         4.453610         1.066493         2.307513
 H         2.282674        -1.869326         1.035500
