19
Iteration:  3110
 C        -0.091751        -0.109641         0.026432
 C         1.366423        -0.057156         0.111401
 C         2.346085         1.139520         0.135063
 C         3.219533        -0.080991         0.134251
 C         2.413379        -0.726860        -0.999199
 O         4.541668        -0.273739         0.665860
 C         4.231817        -0.201151         2.125545
 O         2.805472        -0.182191         2.312993
 C         2.288629        -0.697573         1.105885
 H        -0.451763         0.367705         0.889073
 H        -0.318117         0.192719        -0.975559
 H        -0.323756        -1.193548         0.103732
 H         2.270797         1.975207        -0.743038
 H         2.523333         1.724953         1.087319
 H         2.401279        -0.071152        -1.904527
 H         2.459797        -1.844208        -1.034645
 H         4.595702        -1.196455         2.580324
 H         4.665261         0.643358         2.711622
 H         2.244259        -1.837158         1.161604
