19
Iteration:  4465
 C        -0.087078         0.050860        -0.089536
 C         1.372200        -0.071470         0.132062
 C         2.391345         1.080547         0.157897
 C         3.232929        -0.197681         0.117324
 C         2.375300        -0.751349        -0.905820
 O         4.536781        -0.182245         0.688345
 C         4.345151         0.010322         2.037213
 O         2.748375        -0.364394         2.344257
 C         2.264724        -0.861260         1.157375
 H        -0.575113         0.546051         0.717967
 H        -0.433010         0.690503        -0.956562
 H        -0.551674        -0.873943         0.003021
 H         2.376068         1.855031        -0.647555
 H         2.438708         1.572842         1.126492
 H         2.293535        -0.210131        -1.833154
 H         2.549417        -1.949475        -0.924892
 H         5.018232        -0.533464         2.689713
 H         4.461513         1.095551         2.139940
 H         2.037644        -1.918054         1.099331
