19
Iteration:  3792
 C        -0.104488        -0.186480        -0.059398
 C         1.358496         0.021454         0.075189
 C         2.348273         1.223843         0.117865
 C         3.285184        -0.170119         0.098338
 C         2.318014        -0.674533        -0.922979
 O         4.529327        -0.266295         0.678108
 C         4.194157        -0.223931         2.177646
 O         2.855742        -0.194289         2.360031
 C         2.338183        -0.732604         1.150226
 H        -0.584136         0.554546         0.468417
 H        -0.254229        -0.143548        -1.089419
 H        -0.450074        -1.190950         0.304022
 H         2.346494         1.872405        -0.775842
 H         2.465934         1.815850         1.042502
 H         2.258602        -0.131407        -1.917502
 H         2.150008        -1.662321        -1.218793
 H         4.913402        -1.018110         2.622245
 H         4.709276         0.715507         2.536654
 H         2.341947        -1.875176         0.992208
