19
Iteration:  2369
 C        -0.163835         0.031736        -0.016427
 C         1.363122        -0.123096         0.152978
 C         2.407348         1.072084         0.030445
 C         3.250260        -0.123964         0.156859
 C         2.264834        -0.752263        -0.935774
 O         4.540832        -0.140566         0.653407
 C         4.253153        -0.236953         2.074099
 O         2.883738        -0.255438         2.369116
 C         2.356494        -0.718560         1.184163
 H        -0.680106         0.680334         0.603319
 H        -0.306860         0.361610        -1.064606
 H        -0.607786        -1.016412        -0.061041
 H         2.308355         1.696823        -0.871699
 H         2.469784         1.719968         0.986974
 H         2.243685        -0.270486        -1.888769
 H         2.415469        -1.815754        -1.031062
 H         4.724802        -1.074418         2.579045
 H         4.438611         0.725763         2.662569
 H         2.341047        -1.801085         1.184978
