19
Iteration:  4981charge 0 multiplicity 1
 C        -0.126118        -0.017233        -0.050447
 C         1.361887        -0.061490         0.082540
 C         2.369286         1.093137         0.078020
 C         3.221230        -0.210234         0.166829
 C         2.304324        -0.705464        -0.982489
 O         4.519482        -0.181358         0.714019
 C         4.300204        -0.134667         2.152675
 O         2.838682        -0.257029         2.355637
 C         2.353849        -0.751489         1.160433
 H        -0.595905         0.302412         0.848324
 H        -0.536495         0.714615        -0.782750
 H        -0.415156        -1.053792        -0.332610
 H         2.482068         1.703559        -0.864121
 H         2.353604         1.837068         0.938893
 H         2.498925        -0.259302        -2.049506
 H         2.284276        -1.897330        -1.181810
 H         4.782774        -1.083456         2.499288
 H         4.759751         0.670175         2.605494
 H         2.152263        -1.812439         1.132472
