19
Iteration:  1522
 C        -0.109270         0.092492        -0.011525
 C         1.325698        -0.108133         0.140550
 C         2.406994         1.079660         0.125792
 C         3.166977        -0.170333         0.160740
 C         2.287288        -0.800193        -1.006203
 O         4.568574        -0.180556         0.585131
 C         4.378960        -0.054274         2.104798
 O         2.792194        -0.332254         2.379583
 C         2.294227        -0.801218         1.169184
 H        -0.335882         0.703822         0.912501
 H        -0.312814         0.960798        -0.720311
 H        -0.676397        -0.846204        -0.323378
 H         2.529994         1.736249        -0.664339
 H         2.417125         1.576750         1.083210
 H         2.425242        -0.323574        -1.931584
 H         2.211194        -1.876829        -0.771309
 H         4.958642        -0.871930         2.515415
 H         4.747055         0.888224         2.507059
 H         2.163263        -1.947618         0.969245
