19
Iteration:  1583charge 0 multiplicity 1
 C        -0.067045         0.004421         0.101857
 C         1.383401         0.056080         0.103720
 C         2.464253         1.124335         0.138407
 C         3.263735        -0.213997         0.091121
 C         2.299062        -0.670732        -1.020889
 O         4.594545        -0.422642         0.651677
 C         4.137746         0.075222         2.069096
 O         2.806827        -0.347804         2.342080
 C         2.290220        -0.811166         1.129926
 H        -0.321302         0.456893         1.052097
 H        -0.685908         0.413223        -0.694457
 H        -0.300098        -1.018691         0.465132
 H         2.495104         1.856125        -0.805613
 H         2.430013         1.660706         1.094194
 H         2.368610        -0.242532        -2.055134
 H         2.179426        -1.792853        -1.083530
 H         4.838337        -0.436426         2.780019
 H         4.084571         1.181374         2.041613
 H         2.149876        -1.875164         1.156458
