19
Iteration:  2941charge 0 multiplicity 1
 C        -0.185890        -0.082075        -0.020686
 C         1.316488        -0.104566         0.025039
 C         2.427487         1.133948         0.141167
 C         3.273401        -0.054116         0.158084
 C         2.362216        -0.733943        -1.021244
 O         4.576711        -0.207383         0.662610
 C         4.270708        -0.221965         2.170294
 O         2.841354        -0.259877         2.372482
 C         2.254456        -0.692711         1.170257
 H        -0.403021         0.414307         1.008787
 H        -0.661522         0.297715        -0.959088
 H        -0.538993        -1.092379         0.178117
 H         2.605397         1.648570        -0.812063
 H         2.246762         1.958574         0.854632
 H         2.293298        -0.045221        -1.987959
 H         2.401744        -1.838353        -1.278325
 H         4.781456        -1.109765         2.712729
 H         4.646777         0.773262         2.512034
 H         2.227412        -1.808352         0.950548
