19
Iteration:  1566
 C        -0.156568         0.044286         0.212166
 C         1.422045        -0.076305         0.037017
 C         2.393923         1.192418         0.140870
 C         3.293234        -0.233488         0.107667
 C         2.348916        -0.740039        -1.042342
 O         4.556789        -0.375327         0.730193
 C         4.274255         0.063835         1.987383
 O         2.777309        -0.369262         2.383084
 C         2.290107        -0.783447         1.091915
 H        -0.689295         0.766206         0.874576
 H        -0.336279         0.640610        -0.729910
 H        -0.718344        -0.899244         0.083737
 H         2.570405         1.681620        -0.739414
 H         2.503549         1.815078         1.031093
 H         2.382286        -0.065150        -1.852805
 H         2.214691        -1.810571        -1.154188
 H         4.922891        -0.427304         2.723368
 H         4.219960         1.185747         1.949466
 H         2.110072        -1.940071         0.803814
