19
Iteration:  2743
 C        -0.071799        -0.015646         0.030174
 C         1.343394        -0.056750        -0.011643
 C         2.314530         1.143946         0.102841
 C         3.293046        -0.150185         0.115560
 C         2.378784        -0.750231        -1.005545
 O         4.504664        -0.198211         0.695980
 C         4.259331        -0.147759         2.116904
 O         2.830755        -0.361381         2.441060
 C         2.298459        -0.714255         1.137224
 H        -0.318929         0.763057         0.804305
 H        -0.465437         0.337497        -0.897517
 H        -0.522220        -0.990747         0.275182
 H         2.413052         1.704738        -0.813864
 H         2.277068         1.828782         0.907239
 H         2.563040        -0.182687        -1.970727
 H         2.282928        -1.797251        -1.213745
 H         4.961071        -0.774927         2.709419
 H         4.330552         0.879280         2.390187
 H         2.235649        -1.872940         1.007893
