19
Iteration:  4845charge 0 multiplicity 1
 C        -0.146140        -0.014835         0.022231
 C         1.346103        -0.098759        -0.004161
 C         2.245191         1.101112         0.086787
 C         3.274186        -0.123874         0.207629
 C         2.373799        -0.698861        -1.039357
 O         4.610377        -0.201458         0.618480
 C         4.255054        -0.223133         2.197461
 O         2.850145        -0.212603         2.419514
 C         2.304212        -0.802648         1.119060
 H        -0.385580         0.829456         0.639116
 H        -0.448373         0.260202        -0.962835
 H        -0.630995        -0.933171         0.176786
 H         2.392893         1.724964        -0.856622
 H         2.226380         1.881846         0.853926
 H         2.369543        -0.042992        -1.879981
 H         2.504910        -1.841330        -1.078470
 H         4.675578        -1.099866         2.603101
 H         4.653585         0.644514         2.714716
 H         2.359383        -1.811716         1.319929
