19
Iteration:   729charge 0 multiplicity 1
 C        -0.124495        -0.171372         0.080631
 C         1.334762         0.010021         0.146559
 C         2.365718         1.180789         0.124261
 C         3.235069        -0.175190         0.116296
 C         2.364989        -0.714216        -1.089424
 O         4.527369        -0.209152         0.640008
 C         4.260797        -0.358050         2.090392
 O         2.873671        -0.079759         2.348880
 C         2.286660        -0.649871         1.176528
 H        -0.490378         0.362626         1.080981
 H        -0.584871         0.136146        -0.941184
 H        -0.244545        -1.277750         0.014217
 H         2.382714         2.049581        -0.632472
 H         2.448541         1.611796         1.161034
 H         2.304670        -0.193529        -2.003292
 H         2.290065        -1.804367        -1.159545
 H         4.382121        -1.541577         2.218154
 H         5.114437         0.201730         2.617719
 H         2.211577        -1.718048         1.291107
