19
Iteration:  1351
 C        -0.156433         0.016016        -0.001422
 C         1.367064        -0.063422         0.132210
 C         2.281890         1.119374         0.141821
 C         3.242093        -0.168461         0.153428
 C         2.263170        -0.728557        -0.992539
 O         4.579117        -0.199827         0.645494
 C         4.292554        -0.251051         2.152681
 O         2.968208        -0.231512         2.338757
 C         2.309104        -0.744952         1.118339
 H        -0.794176         0.376893         0.860822
 H        -0.164734         0.741588        -0.773945
 H        -0.567813        -0.873587        -0.291476
 H         2.239932         1.677441        -0.838087
 H         2.331777         1.863037         1.064406
 H         2.355264        -0.190372        -1.956867
 H         2.112343        -1.785772        -1.192459
 H         4.748597        -1.198845         2.478776
 H         4.628788         0.719386         2.453520
 H         2.080638        -1.919625         1.209295
