19
Iteration:  1307
 C        -0.096035        -0.137742         0.029287
 C         1.426286         0.055498         0.138151
 C         2.365909         1.223057         0.191229
 C         3.192528        -0.165443         0.095300
 C         2.363404        -0.636022        -0.965964
 O         4.479318        -0.436202         0.627638
 C         4.319124        -0.094028         2.090531
 O         2.910232        -0.302722         2.305876
 C         2.206915        -0.695970         1.110339
 H        -0.576497         0.383018         0.917265
 H        -0.571446         0.281897        -0.831560
 H        -0.317104        -1.166254         0.077012
 H         2.399308         2.013624        -0.603909
 H         2.398872         1.751732         1.210250
 H         2.444985         0.003864        -1.845490
 H         2.208245        -1.650943        -1.110809
 H         4.919682        -0.834577         2.652263
 H         4.467653         0.943394         2.363129
 H         1.972044        -1.846927         1.177606
