19
Iteration:  1424charge 0 multiplicity 1
 C        -0.097464        -0.076228         0.138557
 C         1.366466        -0.125524         0.097669
 C         2.429892         1.162432         0.021831
 C         3.291715        -0.104642         0.090575
 C         2.210652        -0.711595        -1.023137
 O         4.570833        -0.143969         0.700485
 C         4.223737        -0.385447         2.104114
 O         2.775373        -0.147913         2.373704
 C         2.374581        -0.702637         1.111778
 H        -0.409291         0.781118         0.817459
 H        -0.427447         0.326482        -0.879890
 H        -0.532875        -1.079951         0.511090
 H         2.529474         1.807328        -0.868795
 H         2.355370         1.818182         0.911360
 H         2.327161        -0.172727        -1.997947
 H         2.217684        -1.889686        -1.052105
 H         4.377413        -1.482532         2.184133
 H         4.833546         0.286004         2.726392
 H         2.507166        -1.736937         1.178562
