19
Iteration:   915charge 0 multiplicity 1
 C        -0.151487         0.042898         0.187621
 C         1.357040        -0.002055         0.185151
 C         2.364322         1.079208         0.085308
 C         3.235579        -0.217399         0.075039
 C         2.349226        -0.667619        -1.088226
 O         4.633323        -0.269343         0.709335
 C         4.242441         0.012154         2.064701
 O         2.867757        -0.388488         2.343097
 C         2.283760        -0.847832         1.073542
 H        -0.560343         0.698130         1.020174
 H        -0.497199         0.522949        -0.707814
 H        -0.629275        -0.916699         0.076823
 H         2.258746         1.851350        -0.714367
 H         2.217482         1.562459         1.015872
 H         2.388641         0.033385        -2.012450
 H         2.201773        -1.753018        -1.393622
 H         4.892614        -0.708015         2.584665
 H         4.266865         1.130395         2.328844
 H         2.194906        -2.041963         1.179989
