19
Iteration:  2367charge 0 multiplicity 1
 C        -0.152764         0.031354        -0.014742
 C         1.359110        -0.120808         0.146756
 C         2.404790         1.081147         0.031638
 C         3.241539        -0.124801         0.157779
 C         2.259379        -0.759119        -0.926812
 O         4.549577        -0.137216         0.652117
 C         4.257453        -0.238065         2.070293
 O         2.874824        -0.253021         2.393413
 C         2.357011        -0.729394         1.174967
 H        -0.682724         0.735121         0.642425
 H        -0.313587         0.380369        -1.103501
 H        -0.586706        -1.036639        -0.104550
 H         2.254858         1.661378        -0.845632
 H         2.491575         1.789227         0.885796
 H         2.271954        -0.266155        -1.915575
 H         2.433124        -1.803893        -1.040137
 H         4.796597        -1.104569         2.555746
 H         4.416271         0.711911         2.598314
 H         2.326194        -1.848650         1.138653
