19
Iteration:  3370
 C        -0.094826        -0.157862         0.002148
 C         1.352956        -0.020122         0.053883
 C         2.339646         1.129595         0.080991
 C         3.248233        -0.093333         0.139986
 C         2.328911        -0.711188        -0.960643
 O         4.547396        -0.151707         0.675357
 C         4.226717        -0.379798         2.150010
 O         2.870996        -0.113681         2.373140
 C         2.303768        -0.665476         1.120204
 H        -0.559541         0.039731         1.066672
 H        -0.429003         0.376136        -0.937688
 H        -0.308003        -1.295326        -0.018699
 H         2.445783         1.736010        -0.826226
 H         2.518558         1.860588         0.885741
 H         2.315026        -0.450043        -2.041618
 H         2.369069        -1.784680        -0.903263
 H         4.330036        -1.435509         2.477412
 H         4.765049         0.410814         2.775738
 H         2.307557        -1.762655         0.921487
