19
Iteration:  3032charge 0 multiplicity 1
 C        -0.070309        -0.001027        -0.066212
 C         1.421717        -0.117539         0.138837
 C         2.309726         1.131763         0.081224
 C         3.234377        -0.138654         0.173118
 C         2.371307        -0.767771        -0.930075
 O         4.529874        -0.013618         0.628451
 C         4.276865        -0.344539         2.094046
 O         2.783836        -0.249177         2.382164
 C         2.317910        -0.741316         1.154109
 H        -0.318122         0.636592         0.744122
 H        -0.303316         0.585308        -0.941911
 H        -0.544322        -0.935247        -0.022532
 H         2.348592         1.576112        -0.965420
 H         2.147372         1.781430         0.971986
 H         2.344037        -0.438792        -1.927276
 H         2.316265        -1.917257        -0.961105
 H         4.727471        -1.345895         2.387202
 H         4.620517         0.514582         2.694829
 H         2.216532        -1.838932         1.324258
