19
Iteration:  4960charge 0 multiplicity 1
 C        -0.145910        -0.130238        -0.055003
 C         1.421037        -0.039042         0.132526
 C         2.434562         1.147253         0.191545
 C         3.250215        -0.106464         0.124810
 C         2.370140        -0.764179        -0.964090
 O         4.564628        -0.179338         0.630120
 C         4.215868        -0.297395         2.086987
 O         2.810369        -0.086904         2.346257
 C         2.235792        -0.778212         1.169748
 H        -0.640123         0.245520         0.766691
 H        -0.502646         0.669411        -0.700987
 H        -0.379041        -1.125598        -0.505036
 H         2.564764         1.913482        -0.585315
 H         2.390291         1.718974         1.120771
 H         2.315648        -0.388944        -2.104391
 H         2.250559        -1.950388        -0.933794
 H         4.720402        -1.211184         2.501212
 H         4.717183         0.539587         2.518426
 H         2.097146        -1.867035         1.275824
