19
Iteration:  4999
 C        -0.136268         0.053194        -0.005140
 C         1.344794        -0.122763         0.008557
 C         2.327215         1.186085        -0.003365
 C         3.266416        -0.104453         0.148000
 C         2.373332        -0.765049        -1.009728
 O         4.592749        -0.219341         0.684867
 C         4.248225        -0.126671         2.153176
 O         2.842497        -0.350064         2.502084
 C         2.302068        -0.807597         1.144459
 H        -0.552066         0.459543         0.983831
 H        -0.364562         0.678796        -0.940591
 H        -0.737713        -0.833624        -0.014690
 H         2.255381         1.689998        -0.968468
 H         2.329694         1.931612         0.910067
 H         2.274085        -0.359206        -1.955675
 H         2.332911        -1.817483        -1.250661
 H         4.934332        -0.828496         2.669428
 H         4.381255         1.001037         2.398443
 H         2.390861        -1.914780         1.164953
