19
Iteration:  4974
 C        -0.110236        -0.036309        -0.066202
 C         1.342832        -0.060320         0.070844
 C         2.412611         1.170100         0.134081
 C         3.228287        -0.212422         0.146944
 C         2.332253        -0.750927        -0.959901
 O         4.522899        -0.168039         0.717506
 C         4.280880        -0.181288         2.120338
 O         2.865597        -0.212338         2.311076
 C         2.276948        -0.762140         1.167376
 H        -0.610353         0.025433         0.937914
 H        -0.394641         0.608633        -0.846810
 H        -0.559284        -1.041759        -0.284242
 H         2.356326         1.683833        -0.806913
 H         2.574524         1.705102         0.989152
 H         2.354323        -0.209688        -1.914478
 H         2.248596        -1.757516        -1.110784
 H         4.669209        -1.134842         2.490843
 H         4.708035         0.763802         2.683788
 H         2.189204        -1.895766         1.256671
