19
Iteration:  3218charge 0 multiplicity 1
 C        -0.063169        -0.016705         0.039164
 C         1.353526        -0.046979         0.066352
 C         2.426761         1.116660         0.127058
 C         3.262505        -0.230138         0.146285
 C         2.344747        -0.642478        -1.013323
 O         4.586170        -0.249099         0.694474
 C         4.221735         0.016686         2.090979
 O         2.790609        -0.311607         2.363783
 C         2.287736        -0.895353         1.189208
 H        -0.735908         0.547617         0.668391
 H        -0.530851         0.328559        -0.898491
 H        -0.367860        -1.076711         0.098994
 H         2.386618         1.732477        -0.835017
 H         2.264238         1.626003         1.130318
 H         2.332250        -0.067525        -2.024349
 H         2.187623        -1.686456        -1.437941
 H         4.929107        -0.495428         2.746856
 H         4.326568         1.086380         2.129919
 H         2.092828        -1.993907         0.961183
