19
Iteration:  1973
 C        -0.214631        -0.031298         0.067415
 C         1.281077        -0.040745         0.127646
 C         2.375125         1.166245         0.103657
 C         3.252796        -0.151345         0.119180
 C         2.469614        -0.792912        -1.012039
 O         4.638544        -0.223754         0.610880
 C         4.250528        -0.288503         2.098701
 O         2.848492        -0.140772         2.335566
 C         2.246140        -0.714825         1.174665
 H        -0.362783         0.359264         1.102219
 H        -0.530279         0.689486        -0.735699
 H        -0.710123        -1.010372        -0.067814
 H         2.254764         1.870156        -0.808453
 H         2.359067         1.799548         1.002862
 H         2.461558        -0.444839        -2.027946
 H         2.365943        -1.913490        -0.943021
 H         4.458329        -1.316754         2.322584
 H         4.744400         0.468278         2.707466
 H         2.157373        -1.766413         1.363264
