19
Iteration:  1471charge 0 multiplicity 1
 C        -0.153642        -0.118381         0.018524
 C         1.355538        -0.036668         0.042665
 C         2.374101         1.195778         0.101910
 C         3.216368        -0.029436         0.138328
 C         2.399506        -0.708951        -0.987453
 O         4.498271        -0.316139         0.671223
 C         4.314860        -0.354680         2.034433
 O         2.874197        -0.133046         2.405832
 C         2.280380        -0.703337         1.208772
 H        -0.633287         0.531362         0.846047
 H        -0.573239         0.302169        -0.896187
 H        -0.415717        -1.136864         0.157555
 H         2.369588         1.788612        -0.872658
 H         2.393798         1.957802         1.011373
 H         2.137956        -0.087306        -1.931889
 H         2.451920        -1.823529        -1.078270
 H         4.758732        -1.373768         2.308066
 H         4.804279         0.530323         2.458659
 H         2.215848        -1.774403         1.293844
