19
Iteration:   995
 C        -0.195835        -0.115881        -0.023663
 C         1.322451        -0.005751         0.072324
 C         2.351365         1.175648         0.129569
 C         3.209195        -0.120413         0.154606
 C         2.270779        -0.611385        -0.964183
 O         4.552218        -0.247183         0.634437
 C         4.409246        -0.323090         2.088937
 O         2.882281        -0.219079         2.377245
 C         2.364422        -0.719095         1.200912
 H        -0.606709         0.180953         0.901718
 H        -0.652472         0.330408        -0.897835
 H        -0.509251        -1.257118        -0.017462
 H         2.291811         1.683216        -0.833943
 H         2.367912         1.901318         0.963180
 H         2.289627         0.032807        -1.806986
 H         2.021112        -1.585143        -1.146638
 H         4.819180        -1.266553         2.518958
 H         5.038906         0.527293         2.350085
 H         2.126321        -1.787219         1.095818
