19
Iteration:  4034
 C        -0.125504        -0.115347         0.084361
 C         1.441383        -0.097863         0.073370
 C         2.387654         1.187394         0.023634
 C         3.196153        -0.150770         0.163175
 C         2.443684        -0.762082        -1.002230
 O         4.569695        -0.045559         0.745660
 C         4.174450        -0.391524         2.093849
 O         2.803133        -0.124200         2.289169
 C         2.234920        -0.701358         1.166276
 H        -0.437141         0.211537         1.191424
 H        -0.417490         0.531369        -0.727648
 H        -0.378582        -1.197606        -0.198899
 H         2.535933         1.714058        -0.908148
 H         2.360015         1.658779         0.992125
 H         2.265212        -0.370593        -2.062464
 H         2.512594        -1.830518        -1.119321
 H         4.529060        -1.465142         2.112549
 H         4.753228         0.233172         2.724717
 H         2.190901        -1.718732         1.423221
