19
Iteration:  2348
 C        -0.108479         0.033455        -0.036637
 C         1.414125        -0.012339         0.099189
 C         2.243942         1.199862        -0.006589
 C         3.224580        -0.176997         0.164780
 C         2.364403        -0.813469        -0.975993
 O         4.514170        -0.152614         0.617555
 C         4.402781        -0.163683         2.110158
 O         2.845938        -0.318723         2.441006
 C         2.285783        -0.809467         1.201662
 H        -0.411390         0.498925         0.815645
 H        -0.467424         0.632104        -0.850632
 H        -0.615664        -0.967555        -0.069891
 H         2.527373         1.683726        -1.016989
 H         2.166519         1.892317         0.934760
 H         2.306727        -0.508126        -1.993493
 H         2.041635        -1.857796        -0.879011
 H         4.618866        -1.101234         2.576804
 H         4.881044         0.696790         2.783470
 H         2.181445        -1.858470         1.296714
