19
Iteration:  4891
 C        -0.102709        -0.049451         0.017580
 C         1.441104        -0.060366         0.095902
 C         2.379153         1.169899         0.025820
 C         3.267828        -0.120800         0.135083
 C         2.359181        -0.797436        -0.956054
 O         4.518171         0.008190         0.666826
 C         4.214257        -0.350803         2.105167
 O         2.799964        -0.273276         2.372198
 C         2.318002        -0.743774         1.131071
 H        -0.364866         0.792845         0.536168
 H        -0.579684         0.132354        -0.973592
 H        -0.446735        -0.961265         0.378621
 H         2.496632         1.897030        -0.791931
 H         2.169122         1.819873         0.974429
 H         2.489664        -0.448544        -1.990411
 H         2.214370        -1.950229        -0.667436
 H         4.443123        -1.408827         2.348272
 H         4.768730         0.210734         2.745394
 H         2.113032        -1.743719         1.371847
