19
Iteration:  3335charge 0 multiplicity 1
 C        -0.125901        -0.048994        -0.061820
 C         1.331764        -0.099323         0.090695
 C         2.295704         1.096326         0.067099
 C         3.166218        -0.124942         0.188590
 C         2.432349        -0.742638        -1.015395
 O         4.552047        -0.146715         0.686476
 C         4.283447        -0.274412         2.120920
 O         2.866421        -0.177165         2.416465
 C         2.322769        -0.712324         1.139422
 H        -0.614384         0.188343         0.965060
 H        -0.627596         0.769974        -0.643429
 H        -0.552584        -0.936214        -0.446031
 H         2.382938         1.597052        -0.884018
 H         2.340778         1.704291         0.977227
 H         2.389185        -0.266977        -1.954868
 H         2.531145        -1.828842        -0.977596
 H         4.747874        -1.228147         2.406693
 H         4.951377         0.562425         2.580276
 H         2.193332        -1.841567         1.192052
