19
Iteration:  3162charge 0 multiplicity 1
 C        -0.119801         0.011540        -0.039382
 C         1.413345        -0.096610         0.109708
 C         2.292788         1.134810         0.129595
 C         3.285005        -0.151783         0.136886
 C         2.417801        -0.767462        -0.957295
 O         4.521080        -0.165940         0.662823
 C         4.267649        -0.097967         2.057005
 O         2.813429        -0.350221         2.405164
 C         2.306539        -0.783771         1.165968
 H        -0.520688         0.239558         0.958201
 H        -0.246753         0.844478        -0.783716
 H        -0.610847        -0.826819        -0.466498
 H         2.368824         1.691742        -0.788317
 H         2.151814         2.013975         0.725642
 H         2.258533        -0.277023        -1.895356
 H         2.291150        -1.902263        -0.897276
 H         4.854744        -0.855521         2.508526
 H         4.514081         0.900795         2.376276
 H         2.143370        -1.904223         1.163147
