19
Iteration:  1126
 C        -0.181369         0.050787         0.074728
 C         1.389437        -0.150463         0.068011
 C         2.306077         1.166370         0.153494
 C         3.232058        -0.110737         0.149133
 C         2.345111        -0.686853        -1.053363
 O         4.489959        -0.204067         0.670939
 C         4.357853        -0.259899         2.081816
 O         2.882915        -0.252385         2.372461
 C         2.347500        -0.817067         1.114955
 H        -0.282366         0.797146         0.766503
 H        -0.601323         0.503377        -0.771763
 H        -0.800280        -0.863402         0.276482
 H         2.398319         1.762886        -0.704071
 H         2.114376         1.678155         1.139976
 H         2.211167        -0.003066        -1.943265
 H         2.372808        -1.749624        -1.410576
 H         4.921075        -1.133968         2.367359
 H         4.675859         0.662718         2.599199
 H         2.379938        -2.002614         1.134478
