19
Iteration:  4098
 C        -0.107077        -0.045738        -0.049817
 C         1.379655        -0.005340         0.035752
 C         2.342564         1.138072         0.120820
 C         3.231817        -0.163820         0.197586
 C         2.400896        -0.721962        -0.971997
 O         4.508735        -0.200810         0.654189
 C         4.260470        -0.172896         2.071222
 O         2.852143        -0.196769         2.421760
 C         2.278196        -0.839019         1.167564
 H        -0.659423         0.475719         0.792974
 H        -0.469250         0.284390        -1.006985
 H        -0.451969        -1.151686        -0.024737
 H         2.561026         1.789920        -0.710230
 H         2.181676         1.763602         1.002032
 H         2.498295        -0.290753        -2.121314
 H         2.375849        -1.893911        -1.074483
 H         4.853742        -0.982864         2.555687
 H         4.530544         0.698016         2.621762
 H         2.280392        -1.941475         1.113168
