19
Iteration:  2492
 C        -0.203335         0.083603        -0.007432
 C         1.299394        -0.149522         0.120944
 C         2.303674         1.128713         0.102707
 C         3.301367        -0.179835         0.168984
 C         2.397410        -0.784834        -0.952980
 O         4.602094        -0.172174         0.638215
 C         4.329616        -0.191922         2.108112
 O         2.842724        -0.219102         2.364722
 C         2.268888        -0.818344         1.118835
 H        -0.518660         0.470649         0.985114
 H        -0.245052         0.840733        -0.729382
 H        -0.792566        -0.780786        -0.221695
 H         2.093937         1.667761        -0.879445
 H         2.274516         1.758960         1.001737
 H         2.509086        -0.266660        -1.886715
 H         2.511944        -1.835019        -1.206458
 H         4.673583        -0.968342         2.727840
 H         4.689760         0.844543         2.412711
 H         2.238505        -1.872164         1.054038
