19
Iteration:  1042
 C        -0.178410        -0.139592         0.114340
 C         1.362689        -0.051362         0.093177
 C         2.327376         1.197662         0.110057
 C         3.209224        -0.082139         0.129028
 C         2.318346        -0.623394        -0.986487
 O         4.641607        -0.230961         0.654239
 C         4.258738        -0.402906         2.029587
 O         2.874709        -0.128353         2.325000
 C         2.298411        -0.699332         1.162335
 H        -0.621108         0.091582         1.136178
 H        -0.607605         0.455632        -0.784220
 H        -0.590903        -1.198753        -0.005302
 H         2.483106         1.786333        -0.821810
 H         2.376017         1.819659         1.050320
 H         2.359735        -0.159524        -1.924187
 H         2.433893        -1.703133        -0.997564
 H         4.597130        -1.483456         2.177337
 H         4.761511         0.193717         2.802590
 H         2.307586        -1.773378         1.085564
