19
Iteration:  4899
 C        -0.153610        -0.075027        -0.016228
 C         1.358814        -0.024997         0.055660
 C         2.352902         1.187510        -0.038384
 C         3.284337        -0.085271         0.157972
 C         2.396843        -0.782352        -0.939484
 O         4.554207        -0.041265         0.694306
 C         4.216978        -0.413417         2.110131
 O         2.832820        -0.243590         2.407921
 C         2.326461        -0.722157         1.164934
 H        -0.452026         0.675136         0.904176
 H        -0.636482         0.094877        -0.959056
 H        -0.586875        -1.018035         0.404386
 H         2.370226         1.831119        -0.983307
 H         2.349532         1.753397         0.911625
 H         2.536182        -0.311691        -1.873384
 H         2.158805        -1.922184        -1.041672
 H         4.484817        -1.437952         2.325847
 H         4.836946         0.417681         2.744597
 H         2.269921        -1.869429         1.209488
