19
Iteration:   366charge 0 multiplicity 1
 C        -0.167427         0.099235         0.020738
 C         1.321775        -0.059055         0.078159
 C         2.336018         1.049368         0.080601
 C         3.180649        -0.180645         0.117544
 C         2.330490        -0.777872        -1.041312
 O         4.498017        -0.173019         0.666579
 C         4.333031        -0.123576         2.095132
 O         2.916350        -0.283847         2.477955
 C         2.365943        -0.792056         1.156157
 H        -0.651027         0.338330         0.933565
 H        -0.483618         0.861895        -0.811150
 H        -0.585479        -0.871796        -0.305884
 H         2.306314         1.607310        -0.997615
 H         2.468053         1.659959         0.975067
 H         2.543160        -0.172986        -1.956946
 H         2.407343        -1.978243        -1.176662
 H         5.035972        -0.920606         2.389229
 H         4.631411         0.800812         2.600122
 H         2.204968        -1.943679         1.173445
