19
Iteration:  3956
 C        -0.124836        -0.072568        -0.095046
 C         1.369032        -0.031611         0.092394
 C         2.408793         1.101420         0.161695
 C         3.254591        -0.131301         0.220394
 C         2.302897        -0.715899        -1.030405
 O         4.534947        -0.213745         0.605076
 C         4.254905        -0.087587         2.117172
 O         2.873953        -0.277215         2.439809
 C         2.255319        -0.822628         1.109194
 H        -0.608374         0.690794         0.617410
 H        -0.337578         0.083306        -1.196029
 H        -0.609192        -1.116957         0.234088
 H         2.603109         1.749446        -0.670975
 H         2.225146         1.770850         0.995652
 H         2.366308         0.066167        -1.832638
 H         2.504929        -1.799551        -1.080944
 H         4.919708        -0.842499         2.611193
 H         4.574267         0.875581         2.554427
 H         2.084601        -1.846002         1.357939
