19
Iteration:  3115charge 0 multiplicity 1
 C        -0.085175        -0.095952         0.016670
 C         1.346887        -0.057323         0.102101
 C         2.349917         1.143937         0.096787
 C         3.259840        -0.116907         0.159976
 C         2.376044        -0.702554        -0.983553
 O         4.589970        -0.256854         0.692305
 C         4.224971        -0.218570         2.098107
 O         2.807949        -0.164181         2.325323
 C         2.292768        -0.739271         1.105612
 H        -0.642894         0.324699         0.944473
 H        -0.515182         0.202601        -0.991295
 H        -0.378690        -1.200125         0.032139
 H         2.295218         1.955058        -0.539083
 H         2.377867         1.669120         1.046279
 H         2.402479        -0.102286        -1.888675
 H         2.433805        -1.784532        -0.996373
 H         4.668082        -1.112350         2.527408
 H         4.604857         0.692186         2.581960
 H         2.120806        -1.807817         1.064037
