19
Iteration:  1422
 C        -0.098033        -0.060627         0.143173
 C         1.358004        -0.122909         0.088346
 C         2.435016         1.169452         0.026481
 C         3.278592        -0.117659         0.086781
 C         2.217325        -0.716504        -1.014836
 O         4.550521        -0.128255         0.721545
 C         4.249247        -0.407787         2.096907
 O         2.767140        -0.145351         2.363567
 C         2.386558        -0.703545         1.112103
 H        -0.415521         0.727901         0.819852
 H        -0.396634         0.335167        -0.875278
 H        -0.575602        -1.072498         0.530836
 H         2.474150         1.764669        -0.871770
 H         2.399092         1.790225         0.838072
 H         2.385895        -0.231538        -1.964031
 H         2.224227        -1.856370        -1.104987
 H         4.436465        -1.455992         2.179361
 H         4.824576         0.343771         2.674094
 H         2.551364        -1.788235         1.159702
