19
Iteration:  3389charge 0 multiplicity 1
 C        -0.141725        -0.176204         0.031735
 C         1.397378        -0.046226         0.079341
 C         2.401244         1.265951         0.085673
 C         3.266431        -0.111619         0.118802
 C         2.355384        -0.785984        -1.000531
 O         4.550567        -0.141243         0.726588
 C         4.225010        -0.376597         2.107444
 O         2.799884        -0.106037         2.330074
 C         2.367585        -0.712400         1.135411
 H        -0.636333         0.348756         0.898717
 H        -0.606707         0.085315        -0.931074
 H        -0.508618        -1.104135         0.300988
 H         2.398491         1.955330        -0.758772
 H         2.242443         1.768580         1.060263
 H         2.301464        -0.312594        -1.957317
 H         2.263726        -1.895431        -1.100297
 H         4.497623        -1.443558         2.241000
 H         4.903818         0.358690         2.730613
 H         2.000172        -1.818342         1.127877
