19
Iteration:  1651
 C        -0.122949         0.073549        -0.051553
 C         1.392129        -0.084237         0.100902
 C         2.296217         1.127037         0.088046
 C         3.139959        -0.108181         0.093473
 C         2.355688        -0.806220        -0.954703
 O         4.472371        -0.177100         0.720444
 C         4.327327        -0.271835         2.041999
 O         2.934182        -0.209152         2.353945
 C         2.326538        -0.769437         1.244436
 H        -0.507516         0.502081         0.836772
 H        -0.219760         0.692959        -0.953725
 H        -0.722996        -0.883125        -0.106361
 H         2.315804         1.744482        -0.887638
 H         2.427797         1.681201         1.054272
 H         2.258612        -0.400053        -1.956667
 H         2.394466        -1.929016        -1.033673
 H         4.665221        -1.298466         2.403003
 H         4.759317         0.648535         2.577917
 H         2.458274        -1.846380         1.340424
