19
Iteration:  4564charge 0 multiplicity 1
 C        -0.138730        -0.030550         0.047974
 C         1.402860        -0.095008         0.097371
 C         2.252015         1.159316        -0.020669
 C         3.268244        -0.192625         0.115473
 C         2.398723        -0.793355        -1.001557
 O         4.544452        -0.078803         0.754724
 C         4.266978        -0.384485         2.141457
 O         2.819755        -0.142728         2.383625
 C         2.343106        -0.688011         1.111087
 H        -0.591340         0.414944         0.910190
 H        -0.534366         0.568300        -0.889756
 H        -0.561869        -1.048407        -0.059040
 H         2.364273         1.867959        -0.825797
 H         2.298357         1.754383         0.853692
 H         2.518299        -0.204487        -1.901401
 H         2.589677        -1.921534        -1.207971
 H         4.551007        -1.416996         2.183892
 H         4.844185         0.249721         2.806692
 H         2.090283        -1.757178         1.240116
