19
Iteration:  1919
 C        -0.148713         0.144713         0.094403
 C         1.321617         0.002576         0.107850
 C         2.344649         1.085390         0.042900
 C         3.321739        -0.185979         0.134524
 C         2.287050        -0.830881        -0.947718
 O         4.590690        -0.189057         0.640983
 C         4.257080        -0.090435         2.149784
 O         2.821932        -0.382284         2.351166
 C         2.360998        -0.804781         1.064477
 H        -0.511836         0.920522         0.799918
 H        -0.429758         0.537688        -0.926685
 H        -0.581689        -0.861462         0.230984
 H         2.338884         1.737787        -0.868878
 H         2.293280         1.751608         0.900948
 H         2.357208        -0.414941        -1.936344
 H         2.247430        -1.940730        -1.029873
 H         4.896313        -0.897636         2.774228
 H         4.537848         0.949903         2.471684
 H         2.233528        -1.838256         1.167321
