19
Iteration:  3876charge 0 multiplicity 1
 C        -0.129419         0.054865         0.080451
 C         1.381661        -0.038026         0.026846
 C         2.410707         1.042012         0.113305
 C         3.303799        -0.179753         0.098786
 C         2.357860        -0.793516        -1.043647
 O         4.538130        -0.154559         0.704322
 C         4.157136         0.053318         2.175961
 O         2.874891        -0.380317         2.378201
 C         2.311638        -0.882188         1.072440
 H        -0.571585         0.266074         1.044173
 H        -0.449679         1.018588        -0.510336
 H        -0.657982        -0.832595        -0.380355
 H         2.479316         1.586387        -0.839137
 H         2.451704         1.738364         0.953320
 H         2.340545        -0.300736        -2.022344
 H         2.063648        -1.929484        -1.088407
 H         4.761018        -0.592996         2.739060
 H         4.153250         1.093244         2.431795
 H         2.221200        -1.919824         1.275694
