19
Iteration:  3925
 C        -0.120168        -0.070529         0.005990
 C         1.359443        -0.015838         0.090538
 C         2.349326         1.195711         0.176806
 C         3.259207        -0.180771         0.154098
 C         2.373657        -0.710506        -1.037979
 O         4.550144        -0.416778         0.715138
 C         4.202221         0.068208         2.058555
 O         2.849174        -0.289854         2.344467
 C         2.372124        -0.819199         1.091593
 H        -0.638579         0.486909         0.883580
 H        -0.518169         0.468983        -0.806721
 H        -0.513305        -1.121677         0.021251
 H         2.443157         2.002571        -0.577731
 H         2.239031         1.642095         1.177356
 H         2.494009        -0.062941        -1.963675
 H         2.457127        -1.703390        -1.248852
 H         4.667667        -0.590276         2.864343
 H         4.115501         1.154881         2.218189
 H         2.233597        -1.930545         1.215292
