19
Iteration:  4619
 C        -0.128572        -0.017572        -0.063763
 C         1.382208        -0.039079         0.166992
 C         2.303016         1.187238         0.063612
 C         3.272151        -0.169421         0.101809
 C         2.359309        -0.804576        -1.016838
 O         4.553441        -0.113108         0.681448
 C         4.255619        -0.286019         2.153919
 O         2.864151        -0.183174         2.409166
 C         2.287538        -0.775566         1.121560
 H        -0.511011         0.125898         0.894293
 H        -0.524393         0.728358        -0.853305
 H        -0.441561        -1.029585        -0.409309
 H         2.447507         1.673051        -0.837933
 H         2.425230         1.673805         0.994987
 H         2.247259        -0.535680        -2.042991
 H         2.201120        -1.886181        -0.832289
 H         4.729137        -1.154977         2.546297
 H         4.590778         0.568685         2.744162
 H         2.294957        -1.896760         1.233595
