19
Iteration:   838
 C        -0.128992         0.026227         0.014637
 C         1.338543        -0.143172         0.100652
 C         2.293507         1.125132         0.194731
 C         3.211329        -0.094020         0.163660
 C         2.305735        -0.704886        -1.040191
 O         4.491740        -0.244898         0.602465
 C         4.280435        -0.204828         2.067488
 O         2.922109        -0.251044         2.383677
 C         2.392402        -0.771492         1.159918
 H        -0.723362         0.530065         0.856474
 H        -0.330089         0.741682        -0.803599
 H        -0.590767        -0.929670        -0.205986
 H         2.497579         1.717075        -0.701454
 H         2.380789         1.641966         1.116444
 H         2.251057        -0.120175        -1.983437
 H         2.413007        -1.826419        -1.194444
 H         4.890555        -0.902723         2.619224
 H         4.655861         0.792464         2.470243
 H         2.530330        -1.852258         1.330323
