19
Iteration:   109
 C        -0.192510         0.107288         0.054397
 C         1.364360        -0.101951         0.029504
 C         2.282766         1.100263         0.063985
 C         3.263035        -0.104352         0.166608
 C         2.384968        -0.794668        -0.953435
 O         4.555182        -0.090659         0.629446
 C         4.284788        -0.250839         2.134160
 O         2.842174        -0.297957         2.349070
 C         2.385570        -0.801527         1.133846
 H        -0.453713         0.892356         0.929295
 H        -0.639158         0.456668        -0.776040
 H        -0.691900        -0.787615         0.457543
 H         2.362776         1.685178        -0.834368
 H         2.161264         1.697815         0.982229
 H         2.453307        -0.350150        -1.956549
 H         2.299926        -1.857359        -1.030868
 H         4.633426        -1.260731         2.291433
 H         4.692719         0.490160         2.819902
 H         2.464612        -1.939592         1.121542
