19
Iteration:   497charge 0 multiplicity 1
 C        -0.179375        -0.069833        -0.015001
 C         1.340602        -0.049627         0.108377
 C         2.296785         1.161877        -0.023161
 C         3.217651        -0.137120         0.147356
 C         2.288454        -0.758044        -0.938087
 O         4.540547        -0.095960         0.643097
 C         4.301187        -0.413156         2.094844
 O         2.980880        -0.187682         2.457883
 C         2.332208        -0.661094         1.192616
 H        -0.569625         0.517250         0.765826
 H        -0.625953         0.311164        -1.023514
 H        -0.692377        -0.999578        -0.135069
 H         2.336499         1.764945        -0.987136
 H         2.415440         1.774412         0.871164
 H         2.410576        -0.267421        -1.883676
 H         2.344835        -1.857478        -1.150498
 H         4.665146        -1.410396         2.458094
 H         4.876967         0.302063         2.758733
 H         2.243174        -1.806826         1.126505
