19
Iteration:  3359
 C        -0.111017        -0.166541        -0.013765
 C         1.401634        -0.043071         0.104228
 C         2.346817         1.266784         0.029429
 C         3.241357        -0.102833         0.164464
 C         2.367598        -0.752513        -0.983827
 O         4.556259        -0.162720         0.661988
 C         4.229837        -0.352321         2.157941
 O         2.844898        -0.129513         2.372244
 C         2.307489        -0.759938         1.155436
 H        -0.641313         0.235669         0.954380
 H        -0.667093         0.519556        -0.731377
 H        -0.446834        -1.216870        -0.324190
 H         2.437587         1.680972        -0.969250
 H         2.147014         1.909417         0.894995
 H         2.286240        -0.208209        -1.941296
 H         2.356353        -1.829111        -1.038840
 H         4.627576        -1.370638         2.270285
 H         4.935202         0.334284         2.730905
 H         2.060213        -1.787927         1.454745
