19
Iteration:  1313
 C        -0.084020        -0.130625         0.045545
 C         1.360647         0.009528         0.097384
 C         2.431425         1.230739         0.243761
 C         3.211893        -0.149297         0.176580
 C         2.357207        -0.627694        -1.000665
 O         4.450843        -0.388346         0.625674
 C         4.308761        -0.133954         2.026185
 O         2.885503        -0.262209         2.306166
 C         2.228877        -0.742347         1.145358
 H        -0.624651         0.334719         0.830843
 H        -0.516648         0.279661        -0.926564
 H        -0.308824        -1.272480        -0.089619
 H         2.571494         1.954697        -0.587229
 H         2.535577         1.743734         1.149215
 H         2.425741        -0.040122        -1.926652
 H         1.990409        -1.752391        -1.107451
 H         4.914903        -0.811080         2.653059
 H         4.687987         0.923447         2.260608
 H         2.077450        -1.775888         1.236635
