19
Iteration:  2804
 C        -0.074088        -0.033199        -0.000702
 C         1.412453        -0.087415         0.019892
 C         2.371267         1.113717         0.169167
 C         3.178457        -0.221103         0.095958
 C         2.294851        -0.643707        -1.052460
 O         4.509974        -0.229487         0.680191
 C         4.304465        -0.065636         2.155003
 O         2.766916        -0.278415         2.383302
 C         2.364496        -0.850800         1.167918
 H        -0.450378         0.369723         0.898911
 H        -0.266549         0.727608        -0.816230
 H        -0.701176        -0.933376        -0.285653
 H         2.658962         1.579176        -0.783581
 H         2.430386         1.744410         1.084747
 H         2.440658        -0.077374        -1.919101
 H         2.295916        -1.773691        -1.117310
 H         5.081930        -0.593236         2.689788
 H         4.393487         1.016890         2.380360
 H         2.371755        -1.826822         1.408552
