19
Iteration:   274charge 0 multiplicity 1
 C        -0.173067        -0.108123         0.127604
 C         1.345325        -0.005313         0.087247
 C         2.308792         1.289986        -0.030377
 C         3.262038        -0.078754         0.106449
 C         2.397404        -0.807950        -0.959935
 O         4.524826        -0.084171         0.711820
 C         4.248903        -0.456232         2.123266
 O         2.873448        -0.223607         2.330874
 C         2.360559        -0.701545         1.116908
 H        -0.632052         0.762722         0.702521
 H        -0.475467         0.106466        -0.840956
 H        -0.626817        -1.052559         0.568579
 H         2.404179         1.716466        -0.987592
 H         2.429963         2.043827         0.795555
 H         2.449384        -0.472971        -2.025850
 H         2.460606        -1.854342        -0.856387
 H         4.443109        -1.553004         2.262399
 H         4.880738         0.117912         2.855466
 H         2.209368        -1.807080         1.201636
