19
Iteration:  1146
 C        -0.144803        -0.121538         0.042478
 C         1.377883         0.061091         0.176147
 C         2.351473         1.151808         0.198092
 C         3.239027        -0.143099         0.128819
 C         2.256652        -0.578286        -1.023847
 O         4.633076        -0.323348         0.604835
 C         4.275915        -0.207286         2.074953
 O         2.849343        -0.250089         2.335005
 C         2.304668        -0.774149         1.164448
 H        -0.786680         0.415992         0.782254
 H        -0.426616         0.287917        -0.912000
 H        -0.370132        -1.233081         0.020818
 H         2.322620         1.777027        -0.653479
 H         2.420399         1.776292         1.123429
 H         2.436127         0.003015        -2.032575
 H         2.203089        -1.726721        -1.215674
 H         4.622742        -1.076421         2.646790
 H         4.738612         0.769806         2.238312
 H         2.109387        -1.825617         1.046940
