19
Iteration:  1194charge 0 multiplicity 1
 C        -0.153243        -0.070024         0.056046
 C         1.340602         0.023013         0.054302
 C         2.269717         1.261091         0.167457
 C         3.254177        -0.247664         0.129217
 C         2.369945        -0.583241        -1.006323
 O         4.563448        -0.399958         0.612809
 C         4.299786        -0.076059         2.075869
 O         2.901237        -0.377749         2.420598
 C         2.295838        -0.745850         1.170852
 H        -0.551772         0.163244         0.969992
 H        -0.652668         0.586561        -0.660547
 H        -0.359772        -1.083135        -0.247037
 H         2.434804         1.893070        -0.771961
 H         2.331936         1.930763         1.028049
 H         2.407338         0.027782        -1.862450
 H         2.252120        -1.614986        -1.297575
 H         5.006445        -0.683603         2.624192
 H         4.564246         0.972691         2.097797
 H         1.927608        -1.839943         1.033638
