19
Iteration:   545
 C        -0.151156        -0.060333         0.003710
 C         1.370144        -0.096397         0.160236
 C         2.324605         1.160288         0.053130
 C         3.284586        -0.006883         0.047416
 C         2.340741        -0.832951        -0.910318
 O         4.531138        -0.066296         0.636759
 C         4.228767        -0.457142         2.111290
 O         2.939570        -0.152420         2.397378
 C         2.307043        -0.645161         1.165512
 H        -0.710911         0.334952         0.891282
 H        -0.432933         0.443052        -0.834262
 H        -0.518385        -1.071976        -0.184879
 H         2.253530         1.696134        -0.893373
 H         2.332267         1.916383         0.913774
 H         2.176913        -0.541427        -2.021386
 H         2.344337        -1.961130        -0.903070
 H         4.261129        -1.516778         2.052097
 H         4.990265        -0.080584         2.783755
 H         2.235921        -1.783053         1.294524
