19
Iteration:  1440
 C        -0.114578        -0.096115         0.103627
 C         1.403051         0.035406         0.063580
 C         2.346540         1.181937         0.095653
 C         3.304487        -0.107560         0.109165
 C         2.323501        -0.732990        -0.995140
 O         4.639355        -0.209017         0.566425
 C         4.180909        -0.410862         2.226598
 O         2.831631        -0.102523         2.348955
 C         2.290036        -0.727404         1.124701
 H        -0.634445         0.466299         0.871167
 H        -0.591064        -0.011594        -0.831492
 H        -0.346962        -1.055730         0.462644
 H         2.259766         1.719286        -0.889806
 H         2.417489         1.843125         1.044550
 H         2.031693        -0.320311        -1.983019
 H         2.256492        -1.753547        -1.199172
 H         4.496878        -1.487867         2.287404
 H         4.720909         0.394025         2.806230
 H         1.968845        -1.849764         1.256675
