19
Iteration:  4672charge 0 multiplicity 1
 C        -0.119770        -0.088367         0.027669
 C         1.416970        -0.036542         0.042178
 C         2.353944         1.224976         0.143244
 C         3.238977        -0.103867         0.220252
 C         2.401286        -0.722356        -1.014139
 O         4.495799        -0.343086         0.657674
 C         4.239079        -0.090828         2.119436
 O         2.856636        -0.287734         2.309229
 C         2.280036        -0.728921         1.135778
 H        -0.673159         0.604289         0.657312
 H        -0.395334         0.209473        -1.045511
 H        -0.416212        -1.045075         0.382930
 H         2.328854         1.818678        -0.708839
 H         2.202164         1.657232         1.078459
 H         2.651946        -0.314639        -1.911516
 H         2.329422        -1.810843        -1.108151
 H         4.810012        -0.859342         2.783838
 H         4.369066         0.928185         2.424422
 H         2.342160        -1.890038         1.095080
