19
Iteration:    17charge 0 multiplicity 1
 C        -0.091064        -0.132202         0.015355
 C         1.348478        -0.092267        -0.016238
 C         2.315881         1.171416         0.091502
 C         3.223930        -0.146651         0.181728
 C         2.368168        -0.624603        -1.049578
 O         4.496562        -0.244146         0.606275
 C         4.312531        -0.325885         2.130110
 O         2.940524        -0.101851         2.456033
 C         2.238224        -0.722569         1.220608
 H        -0.396825         0.330130         0.979354
 H        -0.535925         0.509593        -0.884657
 H        -0.572790        -1.133551         0.137248
 H         2.454261         1.642712        -0.893404
 H         2.131895         1.758252         1.006515
 H         2.415090         0.046388        -1.935197
 H         2.275466        -1.710973        -1.275650
 H         4.594754        -1.436180         2.226851
 H         4.946956         0.471035         2.605754
 H         2.016904        -1.805744         1.369517
