19
Iteration:  4371charge 0 multiplicity 1
 C        -0.142790        -0.085488         0.027933
 C         1.355864        -0.023588         0.019252
 C         2.406528         1.120275         0.067553
 C         3.252243        -0.196678         0.155767
 C         2.262945        -0.704562        -1.099665
 O         4.595496        -0.217279         0.774037
 C         4.297949        -0.100583         2.148836
 O         2.799269        -0.232714         2.350697
 C         2.346445        -0.819914         1.139513
 H        -0.582412         0.385857         0.950420
 H        -0.485604         0.602192        -0.777428
 H        -0.580517        -1.140570         0.013069
 H         2.465941         1.734008        -0.872931
 H         2.433857         1.698618         0.973934
 H         2.454528        -0.172194        -2.020909
 H         2.194584        -1.728493        -1.095720
 H         4.808014        -0.791736         2.812911
 H         4.426065         0.914727         2.529091
 H         2.115965        -1.921450         1.194971
