19
Iteration:  1615
 C        -0.166356         0.001890         0.046095
 C         1.371801        -0.015303         0.098080
 C         2.430699         1.121115         0.093745
 C         3.225031        -0.177079         0.079105
 C         2.311799        -0.707681        -1.037386
 O         4.630190        -0.305849         0.689017
 C         4.266007        -0.078964         2.019095
 O         2.805473        -0.291227         2.402178
 C         2.275975        -0.799742         1.231303
 H        -0.512291         0.624853         0.893501
 H        -0.731199         0.476919        -0.781241
 H        -0.508872        -1.060282         0.120023
 H         2.527986         1.809361        -0.858621
 H         2.491418         1.729904         0.998137
 H         2.371705        -0.094535        -1.971185
 H         2.281816        -1.821546        -1.095797
 H         4.859469        -0.728996         2.674315
 H         4.444771         0.918038         2.319136
 H         2.141764        -1.782360         1.097286
