19
Iteration:  2653charge 0 multiplicity 1
 C        -0.236582         0.016976        -0.017726
 C         1.408930        -0.129194         0.053149
 C         2.401861         1.178343         0.051630
 C         3.276370        -0.066815         0.144290
 C         2.296673        -0.782017        -1.018202
 O         4.558182        -0.215909         0.698495
 C         4.263328        -0.177387         2.163121
 O         2.875329        -0.272378         2.420383
 C         2.293108        -0.788251         1.135042
 H        -0.635772         0.323800         0.904557
 H        -0.652750         0.756649        -0.690724
 H        -0.614280        -0.995206        -0.257438
 H         2.474181         1.673949        -0.865568
 H         2.334170         1.782308         0.930289
 H         2.269297        -0.236014        -1.955828
 H         2.549987        -1.854783        -1.246431
 H         4.967480        -0.896530         2.713390
 H         4.460467         0.835310         2.496300
 H         2.382213        -1.941760         1.150800
