19
Iteration:  4651
 C        -0.112760        -0.097092        -0.066122
 C         1.360326        -0.074022         0.092880
 C         2.309092         1.127923         0.158275
 C         3.243265        -0.198587         0.114069
 C         2.416618        -0.648278        -1.029781
 O         4.550367        -0.285559         0.678298
 C         4.283077        -0.177089         2.086184
 O         2.824729        -0.144201         2.410070
 C         2.276876        -0.746684         1.163420
 H        -0.556603         0.422560         0.760680
 H        -0.481458         0.525994        -0.944086
 H        -0.423762        -1.089135         0.191008
 H         2.437418         1.748839        -0.638460
 H         2.333130         1.706134         1.046200
 H         2.404347        -0.167061        -1.895120
 H         2.300735        -1.692491        -1.281254
 H         4.780037        -1.043920         2.628061
 H         4.606386         0.808875         2.437631
 H         2.194454        -1.920772         1.268192
