19
Iteration:  2135
 C        -0.128468        -0.060186         0.119457
 C         1.305904         0.034650         0.106430
 C         2.506071         1.162959         0.104347
 C         3.219785        -0.166216         0.140401
 C         2.335331        -0.706209        -0.983986
 O         4.508339        -0.377090         0.625507
 C         4.282880        -0.023892         2.143241
 O         2.813644        -0.284548         2.337968
 C         2.290858        -0.734273         1.093206
 H        -0.611911         0.169838         1.077800
 H        -0.492377         0.441946        -0.754378
 H        -0.254903        -1.037956        -0.242423
 H         2.504496         1.698548        -0.846848
 H         2.472127         1.874110         0.893824
 H         2.490026        -0.404896        -1.995901
 H         2.321379        -1.802474        -0.922661
 H         4.855132        -0.969756         2.513999
 H         4.545914         1.007568         2.339293
 H         2.180499        -1.818272         1.059674
