19
Iteration:  2898charge 0 multiplicity 1
 C        -0.077785         0.056168         0.009713
 C         1.397870        -0.107874         0.056561
 C         2.343560         1.068444         0.149060
 C         3.227301        -0.101433         0.137300
 C         2.391857        -0.741886        -0.957114
 O         4.538322        -0.159010         0.660076
 C         4.225363        -0.137369         2.107637
 O         2.779315        -0.306668         2.320186
 C         2.367137        -0.821323         1.128812
 H        -0.554725         0.760007         0.729267
 H        -0.480861         0.261709        -1.011325
 H        -0.701001        -0.796950         0.245605
 H         2.399587         1.802986        -0.686580
 H         2.328651         1.553314         1.165718
 H         2.231591        -0.211055        -1.962454
 H         2.603330        -1.830357        -0.936907
 H         4.865195        -0.942096         2.602510
 H         4.463904         0.870001         2.531348
 H         2.173663        -1.938665         1.264617
