19
Iteration:  4587
 C        -0.175347        -0.012525        -0.000253
 C         1.356575        -0.118908         0.031034
 C         2.355808         1.163003        -0.060326
 C         3.207238        -0.074300         0.206845
 C         2.443837        -0.781176        -0.961028
 O         4.522673        -0.051585         0.702244
 C         4.276769        -0.382183         2.132021
 O         2.867139        -0.201710         2.423709
 C         2.267000        -0.787122         1.164516
 H        -0.430185         0.214420         0.994170
 H        -0.617924         0.871108        -0.583014
 H        -0.771114        -0.932700        -0.271955
 H         2.745865         1.639146        -0.948974
 H         2.261203         1.992398         0.669453
 H         2.378028        -0.458154        -2.051930
 H         2.444464        -1.932013        -0.818916
 H         4.726182        -1.323953         2.244724
 H         4.806975         0.433600         2.666137
 H         2.349195        -1.868382         1.149419
