19
Iteration:  4713
 C        -0.082945         0.020936         0.030584
 C         1.352075        -0.049096         0.077882
 C         2.422018         1.093924         0.072793
 C         3.217008        -0.230237         0.113672
 C         2.297304        -0.718437        -1.008834
 O         4.544465        -0.153563         0.741727
 C         4.156659        -0.002912         2.152953
 O         2.884412        -0.409762         2.344119
 C         2.331043        -0.830905         1.112632
 H        -0.403955         0.811069         0.781340
 H        -0.394811         0.319548        -0.987356
 H        -0.585859        -0.920156         0.209159
 H         2.675301         1.629741        -0.967461
 H         2.435255         1.656853         1.008408
 H         2.531132        -0.007970        -1.924340
 H         2.000383        -1.814650        -1.189385
 H         4.920767        -0.571393         2.816522
 H         4.257092         1.054086         2.360704
 H         2.298687        -1.895062         1.114947
