19
Iteration:  2811charge 0 multiplicity 1
 C        -0.137268        -0.042337        -0.028300
 C         1.386750        -0.082799         0.036630
 C         2.385873         1.104906         0.222075
 C         3.222045        -0.199349         0.205717
 C         2.365972        -0.710782        -1.009702
 O         4.515955        -0.255482         0.709325
 C         4.284054        -0.070104         2.075195
 O         2.815131        -0.260085         2.342798
 C         2.322100        -0.771448         1.094496
 H        -0.461895         0.317852         1.024585
 H        -0.476124         0.741314        -0.821451
 H        -0.591124        -0.992686        -0.337636
 H         2.441643         1.720643        -0.736338
 H         2.469950         1.809708         1.113708
 H         2.466611        -0.079960        -1.932542
 H         2.069578        -1.755389        -1.167050
 H         5.039490        -0.593717         2.714960
 H         4.430373         1.010876         2.328064
 H         2.272835        -2.017055         1.042118
