19
Iteration:  3327
 C        -0.168843        -0.015787        -0.063155
 C         1.360909        -0.079633         0.056928
 C         2.308146         1.145648         0.127027
 C         3.254548        -0.097415         0.138250
 C         2.382796        -0.822075        -0.985972
 O         4.506497        -0.137611         0.645635
 C         4.289932        -0.227299         2.177540
 O         2.899995        -0.193977         2.404973
 C         2.303606        -0.825288         1.101512
 H        -0.526886         0.170737         1.045087
 H        -0.366989         0.873676        -0.755760
 H        -0.531867        -1.045604        -0.444979
 H         2.539705         1.792484        -0.734231
 H         2.052012         1.849496         0.944970
 H         2.301899        -0.320366        -2.000403
 H         2.542992        -1.902315        -1.058493
 H         4.651340        -1.224737         2.464066
 H         4.693325         0.612579         2.790358
 H         2.281778        -1.778074         1.525926
