19
Iteration:  3518
 C        -0.150251        -0.093229         0.020014
 C         1.365285        -0.061142         0.044389
 C         2.434620         1.164339         0.205727
 C         3.278993        -0.152000         0.080727
 C         2.368119        -0.685095        -1.012519
 O         4.498706        -0.391621         0.719314
 C         4.297839         0.073165         2.074888
 O         2.788214        -0.297925         2.384872
 C         2.307521        -0.784317         1.123507
 H        -0.584467         0.041998         1.037795
 H        -0.650594         0.722890        -0.539456
 H        -0.216739        -1.052921        -0.627164
 H         2.342403         1.866506        -0.651034
 H         2.372861         1.729513         1.169529
 H         2.340169        -0.248775        -2.023998
 H         2.357754        -1.835143        -1.215021
 H         4.894319        -0.411762         2.837642
 H         4.465069         1.140798         2.141476
 H         2.176520        -1.813888         0.979799
