19
Iteration:  4538
 C        -0.101736        -0.098003        -0.010728
 C         1.440409        -0.056326         0.067633
 C         2.383485         1.136991         0.154205
 C         3.237703        -0.095475         0.130009
 C         2.331276        -0.743936        -0.964507
 O         4.525878        -0.168078         0.659614
 C         4.162464        -0.310754         2.181204
 O         2.816745        -0.130441         2.311444
 C         2.357893        -0.720199         1.107511
 H        -0.765942         0.544175         0.753174
 H        -0.671158         0.082989        -0.955692
 H        -0.273024        -1.138386         0.393211
 H         2.261164         1.779762        -0.713284
 H         2.580318         1.896016         0.934034
 H         2.638558        -0.388323        -1.931028
 H         2.365612        -1.789634        -0.910757
 H         4.526801        -1.390310         2.115673
 H         4.745382         0.392344         2.802821
 H         2.285361        -1.892579         1.202242
