19
Iteration:  1108
 C        -0.137736         0.187638         0.153191
 C         1.283988        -0.099830         0.085541
 C         2.244904         1.077589         0.124127
 C         3.194232        -0.131199         0.095421
 C         2.465470        -0.781249        -1.035366
 O         4.544623        -0.014095         0.625082
 C         4.287966        -0.273771         2.090006
 O         2.881017        -0.380341         2.358332
 C         2.341163        -0.823879         1.107389
 H        -0.401998         0.947196         0.950675
 H        -0.447303         0.480340        -0.911383
 H        -0.685256        -0.743883         0.312654
 H         2.181729         1.728226        -0.811248
 H         2.369656         1.606273         1.063004
 H         2.589892        -0.402956        -2.000133
 H         2.522119        -1.833006        -0.951437
 H         4.757925        -1.263885         2.370220
 H         4.697840         0.483639         2.783167
 H         2.357740        -1.895774         1.225177
