19
Iteration:  4044
 C        -0.059478        -0.174150         0.040290
 C         1.375548        -0.033682         0.007724
 C         2.386621         1.145427         0.059326
 C         3.281278        -0.110313         0.121189
 C         2.382678        -0.763388        -0.966949
 O         4.538363        -0.072704         0.694194
 C         4.187649        -0.406072         2.172619
 O         2.818393        -0.095431         2.299887
 C         2.278520        -0.712549         1.161602
 H        -0.363798         0.137699         1.136671
 H        -0.665004         0.578424        -0.454295
 H        -0.614225        -1.179335        -0.045127
 H         2.441902         1.778367        -0.823375
 H         2.388597         1.816949         0.925924
 H         2.541749        -0.220267        -2.006415
 H         2.310071        -1.888192        -0.909623
 H         4.421695        -1.519704         2.322825
 H         4.614217         0.278129         2.864109
 H         2.139446        -1.765363         1.142720
