19
Iteration:   552charge 0 multiplicity 1
 C        -0.173465        -0.067960         0.016328
 C         1.381840        -0.069135         0.134133
 C         2.324179         1.212947         0.024725
 C         3.239656        -0.033856         0.123721
 C         2.271316        -0.814592        -0.948906
 O         4.538807        -0.097033         0.654950
 C         4.279081        -0.449926         2.147087
 O         2.909703        -0.122110         2.392346
 C         2.372646        -0.733114         1.144209
 H        -0.695972         0.319550         0.904877
 H        -0.425640         0.564178        -0.919534
 H        -0.478171        -1.093471        -0.021643
 H         2.270625         1.615228        -0.997241
 H         2.306965         1.911066         0.886069
 H         2.318785        -0.504572        -1.917435
 H         2.452087        -1.911642        -0.991366
 H         4.329160        -1.585703         2.046657
 H         4.987134         0.164040         2.691752
 H         2.332441        -1.833055         1.084454
