19
Iteration:  2184charge 0 multiplicity 1
 C        -0.118933         0.100230        -0.002518
 C         1.394900        -0.024547         0.132571
 C         2.381484         1.066830         0.207795
 C         3.250830        -0.241557         0.091749
 C         2.383803        -0.758094        -0.948038
 O         4.481517        -0.263980         0.660948
 C         4.266765        -0.014797         2.008935
 O         2.841464        -0.275167         2.337208
 C         2.287995        -0.879039         1.181476
 H        -0.406924         0.642147         0.895845
 H        -0.424698         0.674820        -0.896426
 H        -0.668128        -0.881054        -0.073306
 H         2.417315         1.775273        -0.691732
 H         2.482816         1.633764         1.198234
 H         2.363666        -0.209280        -1.932637
 H         2.182577        -1.838577        -1.077559
 H         4.911813        -0.620792         2.548944
 H         4.399810         1.106417         2.102726
 H         2.325383        -1.996344         1.107030
