19
Iteration:  4097charge 0 multiplicity 1
 C        -0.101329        -0.047237        -0.041939
 C         1.372232        -0.009323         0.035033
 C         2.338939         1.135771         0.113048
 C         3.240854        -0.164692         0.208296
 C         2.403022        -0.715342        -0.969988
 O         4.503911        -0.203052         0.657210
 C         4.261392        -0.178529         2.073546
 O         2.851655        -0.192690         2.416766
 C         2.277100        -0.835625         1.158407
 H        -0.650097         0.424517         0.744194
 H        -0.483345         0.298204        -0.987616
 H        -0.432255        -1.135304        -0.020583
 H         2.542050         1.790098        -0.721172
 H         2.195254         1.797195         0.973700
 H         2.497878        -0.274064        -2.068457
 H         2.366926        -1.879907        -1.049111
 H         4.859876        -0.998212         2.528603
 H         4.554534         0.707969         2.623497
 H         2.266600        -1.957772         1.093339
