19
Iteration:  4471charge 0 multiplicity 1
 C        -0.121060         0.031624        -0.077926
 C         1.354503        -0.094441         0.132473
 C         2.378374         1.130125         0.185511
 C         3.250049        -0.152629         0.109214
 C         2.377447        -0.791360        -0.966803
 O         4.554849        -0.212510         0.679369
 C         4.301857        -0.024775         2.036280
 O         2.796770        -0.368148         2.370167
 C         2.257268        -0.775120         1.146530
 H        -0.529846         0.737783         0.777128
 H        -0.361360         0.464970        -1.052939
 H        -0.534554        -1.055100        -0.005086
 H         2.361935         1.896553        -0.587519
 H         2.454538         1.820804         1.068432
 H         2.493273        -0.448776        -2.042714
 H         2.482192        -1.808775        -0.935145
 H         4.901129        -0.693113         2.712719
 H         4.333203         1.043642         2.367751
 H         2.105364        -1.899227         1.334247
