19
Iteration:  2595charge 0 multiplicity 1
 C        -0.163335         0.022448         0.078698
 C         1.368180        -0.072066         0.060371
 C         2.300791         1.129944         0.067788
 C         3.301927        -0.165907         0.150184
 C         2.418739        -0.728939        -1.030579
 O         4.571605        -0.252998         0.658672
 C         4.265681        -0.148636         2.129509
 O         2.805720        -0.225389         2.382685
 C         2.308880        -0.810915         1.106936
 H        -0.613105         0.568133         0.872882
 H        -0.593229         0.328411        -0.895903
 H        -0.629452        -0.932372         0.166966
 H         2.213514         1.907331        -0.752405
 H         2.342708         1.668144         1.076147
 H         2.629561        -0.037058        -1.891760
 H         2.276646        -1.832776        -1.279329
 H         4.791983        -1.003323         2.620921
 H         4.454173         0.839834         2.681814
 H         2.396132        -1.909174         1.195654
