19
Iteration:  4202charge 0 multiplicity 1
 C        -0.071925        -0.027483         0.077236
 C         1.402516        -0.087545         0.109981
 C         2.433536         1.100998         0.082563
 C         3.262840        -0.147372         0.139011
 C         2.326111        -0.705748        -1.057985
 O         4.562598        -0.291732         0.714753
 C         4.202687         0.026814         2.085805
 O         2.729930        -0.307130         2.383815
 C         2.331789        -0.793848         1.099099
 H        -0.540660         0.262809         1.080415
 H        -0.307271         0.734348        -0.781447
 H        -0.346863        -1.043171        -0.205922
 H         2.537398         1.686529        -0.854454
 H         2.369337         1.642187         1.055202
 H         2.241191        -0.210261        -2.073281
 H         2.285225        -1.827441        -1.142762
 H         4.724042        -0.614296         2.769058
 H         4.289499         1.102100         2.265747
 H         2.330032        -1.890257         1.098367
