19
Iteration:   227charge 0 multiplicity 1
 C        -0.159835         0.076599        -0.012981
 C         1.330717        -0.112454         0.052481
 C         2.375091         1.028182         0.167545
 C         3.218308        -0.219670         0.157767
 C         2.316004        -0.753110        -1.041856
 O         4.503287        -0.109294         0.695496
 C         4.329818        -0.124983         2.098399
 O         2.939207        -0.243542         2.345642
 C         2.284854        -0.853470         1.140496
 H        -0.584946         0.480862         0.972564
 H        -0.316111         0.879665        -0.700649
 H        -0.740190        -0.792754        -0.225793
 H         2.419361         1.724664        -0.611594
 H         2.361160         1.503468         1.078838
 H         2.426740        -0.222490        -1.922212
 H         2.123751        -1.778527        -1.296902
 H         5.005627        -0.918764         2.618966
 H         4.531959         0.834627         2.586226
 H         2.269108        -1.904021         1.311581
