19
Iteration:   144
 C        -0.117579         0.021521         0.065907
 C         1.375828        -0.041774         0.093796
 C         2.410476         1.083092         0.190770
 C         3.248048        -0.193668         0.139723
 C         2.322114        -0.675475        -1.013160
 O         4.523321        -0.255152         0.665583
 C         4.232452        -0.022702         2.081639
 O         2.825359        -0.288643         2.296953
 C         2.349248        -0.890364         1.136607
 H        -0.470111         0.669747         0.896778
 H        -0.528368         0.415875        -0.882031
 H        -0.563591        -1.009131         0.100886
 H         2.481979         1.682123        -0.748235
 H         2.404943         1.715319         1.166800
 H         2.322052         0.036817        -1.916862
 H         2.247746        -1.747257        -1.187911
 H         4.822608        -0.765814         2.521628
 H         4.516298         0.989217         2.415813
 H         2.255004        -2.003332         1.101858
