19
Iteration:  3869
 C        -0.125034         0.067223         0.032410
 C         1.350612        -0.109506         0.077029
 C         2.406114         1.048239         0.084466
 C         3.297970        -0.165521         0.116082
 C         2.322346        -0.769623        -0.998263
 O         4.563587        -0.155949         0.720818
 C         4.173707         0.053230         2.143308
 O         2.836362        -0.393954         2.349774
 C         2.353468        -0.819972         1.092017
 H        -0.363316         0.265784         1.094180
 H        -0.402355         0.978780        -0.551903
 H        -0.789700        -0.814398        -0.377905
 H         2.270135         1.594990        -0.841665
 H         2.557813         1.567824         1.041003
 H         2.429873        -0.481603        -2.068014
 H         2.187943        -1.811603        -1.153690
 H         4.826188        -0.687733         2.767237
 H         4.352728         1.121164         2.549394
 H         2.098839        -1.932014         1.061223
