19
Iteration:   451
 C        -0.143755        -0.008674         0.169443
 C         1.366380        -0.054779         0.059446
 C         2.433651         1.120067         0.177176
 C         3.245544        -0.228286         0.130197
 C         2.419572        -0.735773        -1.042478
 O         4.513096        -0.294326         0.622441
 C         4.262932        -0.001511         2.028706
 O         2.786694        -0.285659         2.359315
 C         2.300474        -0.755772         1.149532
 H        -0.387330         0.743694         0.873676
 H        -0.584589         0.150275        -0.932107
 H        -0.650955        -1.037047         0.170311
 H         2.445460         1.866588        -0.655547
 H         2.414489         1.575436         1.126996
 H         2.433717        -0.087278        -1.934424
 H         2.117120        -1.717836        -1.412951
 H         5.003822        -0.726127         2.587363
 H         4.515480         1.023514         2.474969
 H         2.192261        -1.884317         1.142530
