19
Iteration:  4860charge 0 multiplicity 1
 C        -0.199012         0.018075         0.000750
 C         1.371720        -0.139917         0.085947
 C         2.336024         1.110549         0.087365
 C         3.265885        -0.184875         0.102678
 C         2.380555        -0.724441        -1.011815
 O         4.548820        -0.078494         0.723589
 C         4.249803        -0.255415         2.180340
 O         2.839355        -0.198556         2.338899
 C         2.389944        -0.796452         1.147450
 H        -0.515425         0.892881         0.537698
 H        -0.512586         0.238434        -1.086961
 H        -0.767430        -0.797228         0.489421
 H         2.359914         1.661342        -0.838977
 H         2.191575         1.695242         1.049697
 H         2.466136        -0.316051        -2.038962
 H         2.302157        -1.821828        -1.257381
 H         4.679784        -1.343210         2.349155
 H         4.748696         0.497771         2.727287
 H         2.214687        -1.941888         1.173373
