19
Iteration:  1103
 C        -0.147475         0.187607         0.148397
 C         1.314852        -0.099150         0.111120
 C         2.244639         1.079308         0.103737
 C         3.211541        -0.138272         0.092023
 C         2.470518        -0.783769        -0.979040
 O         4.558070         0.020981         0.617249
 C         4.329051        -0.291317         2.093901
 O         2.830852        -0.390520         2.355056
 C         2.321582        -0.821660         1.089181
 H        -0.335820         0.988578         0.836589
 H        -0.535241         0.585743        -0.745393
 H        -0.654684        -0.785050         0.288969
 H         2.200923         1.644634        -0.779914
 H         2.383299         1.670639         1.044414
 H         2.548107        -0.459744        -2.100695
 H         2.415695        -1.932219        -0.925991
 H         4.855275        -1.233562         2.154391
 H         4.584567         0.487660         2.823800
 H         2.291843        -1.986975         1.146030
