19
Iteration:  1757charge 0 multiplicity 1
 C        -0.104216        -0.022327         0.087762
 C         1.418265        -0.034916         0.100142
 C         2.414508         1.138180         0.120015
 C         3.224618        -0.195861         0.089429
 C         2.268590        -0.748456        -1.028769
 O         4.550729        -0.177960         0.744662
 C         4.249903        -0.262428         2.066735
 O         2.839500        -0.165258         2.274482
 C         2.277902        -0.758611         1.158764
 H        -0.444479         0.747820         0.763005
 H        -0.621450         0.291292        -0.858802
 H        -0.451130        -1.089196         0.235494
 H         2.484210         1.814138        -0.783947
 H         2.463415         1.759602         1.002749
 H         2.387208        -0.202334        -1.970544
 H         2.232597        -1.887016        -1.099442
 H         4.626306        -1.223088         2.462944
 H         4.751299         0.479371         2.635599
 H         2.247332        -1.924119         1.389071
