19
Iteration:  1333charge 0 multiplicity 1
 C        -0.208755        -0.076223        -0.064480
 C         1.378853         0.011666         0.130530
 C         2.459700         1.126603         0.219506
 C         3.197103        -0.215946         0.088549
 C         2.251144        -0.622491        -0.997432
 O         4.596265        -0.284601         0.548529
 C         4.326581        -0.174606         2.062947
 O         2.820397        -0.180745         2.437654
 C         2.324627        -0.808976         1.201029
 H        -0.638040         0.317233         0.864870
 H        -0.733372         0.516980        -0.868820
 H        -0.503378        -1.233136        -0.224238
 H         2.580017         1.818173        -0.560659
 H         2.444519         1.648639         1.122388
 H         2.309005         0.055311        -1.865778
 H         2.322138        -1.748030        -1.118540
 H         4.757128        -1.070287         2.499584
 H         4.649144         0.759097         2.642578
 H         2.310651        -1.841835         1.253004
