19
Iteration:  4450
 C        -0.094875         0.095186        -0.045517
 C         1.399163        -0.107516         0.071810
 C         2.394959         1.054465         0.199921
 C         3.216494        -0.237584         0.225742
 C         2.317679        -0.750265        -1.025779
 O         4.536891        -0.227171         0.654083
 C         4.269977         0.131804         2.038303
 O         2.789537        -0.347843         2.394831
 C         2.329990        -0.906928         1.160282
 H        -0.496315         0.560322         0.975054
 H        -0.193758         0.808648        -0.890894
 H        -0.567808        -0.863122        -0.466965
 H         2.592323         1.588263        -0.710816
 H         2.319262         1.796604         1.037720
 H         2.460821        -0.200802        -2.008648
 H         2.048332        -1.748290        -1.260930
 H         4.951456        -0.525018         2.624994
 H         4.194929         1.136792         2.413848
 H         2.380017        -2.056799         1.224571
