19
Iteration:  4698charge 0 multiplicity 1
 C        -0.171311        -0.026961         0.022309
 C         1.427343        -0.028303         0.075272
 C         2.437152         1.153321         0.069456
 C         3.294339        -0.155088         0.158008
 C         2.292536        -0.728567        -1.072310
 O         4.594069        -0.225768         0.688910
 C         4.268123        -0.002544         2.134645
 O         2.772384        -0.415463         2.438538
 C         2.295777        -0.804984         1.110193
 H        -0.728040         0.697970         0.615116
 H        -0.461658         0.250232        -0.967278
 H        -0.484194        -1.011173         0.496275
 H         2.389185         1.766610        -0.869258
 H         2.458736         1.845713         0.995291
 H         2.254256        -0.268405        -2.097932
 H         2.323517        -1.787163        -1.272079
 H         4.818779        -0.660348         2.706143
 H         4.260695         1.084639         2.459446
 H         2.096658        -1.892236         1.141217
