19
Iteration:   203charge 0 multiplicity 1
 C        -0.134405        -0.009022        -0.039302
 C         1.371791        -0.009786         0.159164
 C         2.368512         1.186853         0.187394
 C         3.237587        -0.159769         0.151880
 C         2.315323        -0.716596        -0.946091
 O         4.604250        -0.325645         0.570266
 C         4.252918         0.024399         2.021909
 O         2.816758        -0.376705         2.430861
 C         2.343797        -0.853195         1.153249
 H        -0.726805         0.135270         0.820703
 H        -0.268840         0.983349        -0.666445
 H        -0.527419        -0.881342        -0.555252
 H         2.302367         1.794645        -0.774750
 H         2.358389         1.888724         1.003746
 H         2.332418        -0.336920        -1.968977
 H         2.115864        -1.840877        -1.112030
 H         4.907097        -0.584418         2.735245
 H         4.321195         1.097019         2.239888
 H         2.301541        -1.926836         1.218399
