19
Iteration:  1226charge 0 multiplicity 1
 C        -0.125183         0.207991         0.106763
 C         1.373088        -0.169002         0.065457
 C         2.344245         1.071881         0.253333
 C         3.225310        -0.139057         0.095300
 C         2.307577        -0.711011        -1.006853
 O         4.553007        -0.178434         0.664544
 C         4.285915        -0.031963         2.007706
 O         2.798838        -0.413219         2.345755
 C         2.383056        -0.892226         1.106715
 H        -0.418607         0.650117         0.964307
 H        -0.352055         0.816134        -0.769544
 H        -0.706842        -0.724868        -0.071829
 H         2.487736         1.588054        -0.704539
 H         2.396777         1.538514         1.222405
 H         2.179748        -0.220555        -1.979904
 H         2.490064        -1.835976        -1.155707
 H         4.842293        -0.681794         2.675469
 H         4.467997         0.996417         2.308272
 H         2.367953        -2.049937         1.018344
