19
Iteration:  3979
 C        -0.135051        -0.015221        -0.119425
 C         1.371726        -0.046048         0.119776
 C         2.277708         1.148299         0.076936
 C         3.232933        -0.134127         0.161394
 C         2.386210        -0.777556        -0.977732
 O         4.522458        -0.118619         0.707366
 C         4.367080        -0.245474         2.069878
 O         2.806900        -0.295588         2.405276
 C         2.334664        -0.749738         1.154759
 H        -0.569558         0.764689         0.663567
 H        -0.394214         0.151694        -1.154774
 H        -0.635945        -1.010268         0.224678
 H         2.192854         1.787169        -0.798917
 H         2.369660         1.848790         0.907408
 H         2.410322        -0.330766        -2.004649
 H         2.272961        -1.790227        -0.752097
 H         4.930230        -1.059319         2.617416
 H         4.616623         0.600469         2.682480
 H         2.427387        -1.838158         1.199704
