19
Iteration:  2600
 C        -0.166999        -0.007826         0.086481
 C         1.409560        -0.077499         0.068849
 C         2.311381         1.119607         0.096514
 C         3.292065        -0.175861         0.121922
 C         2.435153        -0.702061        -1.036910
 O         4.542624        -0.238823         0.636882
 C         4.240545        -0.110352         2.126919
 O         2.797007        -0.246722         2.401081
 C         2.318586        -0.798767         1.115801
 H        -0.624142         0.701679         0.863611
 H        -0.547511         0.465681        -0.838088
 H        -0.855352        -0.941914         0.069203
 H         2.396197         1.723760        -0.781308
 H         2.502278         1.664873         0.971835
 H         2.576667        -0.206081        -1.984994
 H         2.303314        -1.759740        -1.137947
 H         4.655518        -1.001932         2.575529
 H         4.572940         0.716074         2.707660
 H         2.417525        -1.905592         1.204702
