19
Iteration:  3631
 C        -0.099386        -0.114959        -0.053406
 C         1.379710         0.019013         0.081152
 C         2.348374         1.131981         0.162959
 C         3.202455        -0.133087         0.120862
 C         2.343827        -0.680958        -0.958480
 O         4.557564        -0.253184         0.687361
 C         4.280302        -0.141329         2.184878
 O         2.855367        -0.233023         2.338656
 C         2.297299        -0.802220         1.062836
 H        -0.792813         0.632175         0.517004
 H        -0.583483        -0.054191        -1.098470
 H        -0.401044        -1.122773         0.310585
 H         2.682983         1.735445        -0.704155
 H         2.246122         1.595298         1.153432
 H         2.319213        -0.183782        -1.978920
 H         2.046099        -1.693722        -1.045152
 H         4.786784        -0.821055         2.849974
 H         4.647170         0.817176         2.397797
 H         2.328028        -1.809031         1.184828
