19
Iteration:  2032
 C        -0.198566        -0.108666         0.010723
 C         1.303865         0.059281         0.153350
 C         2.447616         1.100463         0.021086
 C         3.233171        -0.132457         0.135515
 C         2.307289        -0.764755        -0.968214
 O         4.557478        -0.124312         0.688270
 C         4.311756        -0.375253         2.054469
 O         2.859518        -0.175470         2.376205
 C         2.284506        -0.643198         1.186258
 H        -0.756036         0.478296         0.739619
 H        -0.539675         0.278381        -0.961263
 H        -0.435567        -1.189255         0.228237
 H         2.498051         1.623906        -0.876412
 H         2.686859         1.777500         0.856702
 H         2.515250        -0.417032        -2.023688
 H         2.033633        -1.822226        -0.985489
 H         4.577976        -1.479218         2.386121
 H         4.967636         0.287513         2.656099
 H         2.416459        -1.697214         1.047263
