19
Iteration:  2956charge 0 multiplicity 1
 C        -0.173085        -0.172754         0.019163
 C         1.373708        -0.011257         0.029918
 C         2.452138         1.262596         0.085466
 C         3.229704        -0.145408         0.163773
 C         2.333308        -0.681017        -0.965676
 O         4.526086        -0.212963         0.686805
 C         4.259204        -0.214892         2.107625
 O         2.826612        -0.219163         2.387431
 C         2.306851        -0.792524         1.093251
 H        -0.629770         0.322530         0.837162
 H        -0.508772         0.503547        -0.880431
 H        -0.392748        -1.264600        -0.137183
 H         2.564785         1.898856        -0.852063
 H         2.521813         1.724820         1.107152
 H         2.471334        -0.372674        -1.936606
 H         2.241440        -1.809587        -0.917676
 H         4.703020        -1.164089         2.454899
 H         4.695329         0.660754         2.665157
 H         2.220210        -1.860937         1.282851
