19
Iteration:  4533charge 0 multiplicity 1
 C        -0.126920        -0.102807         0.000260
 C         1.380953        -0.021626         0.105126
 C         2.372800         1.177096         0.128465
 C         3.283800        -0.154283         0.119244
 C         2.363923        -0.733558        -0.966439
 O         4.509077        -0.174648         0.645816
 C         4.178775        -0.308078         2.187841
 O         2.811583        -0.135015         2.331212
 C         2.357277        -0.735897         1.101917
 H        -0.710151         0.458366         0.622085
 H        -0.583698        -0.011396        -0.987011
 H        -0.263867        -1.094511         0.409881
 H         2.378174         1.819043        -0.806994
 H         2.578674         1.788140         1.061076
 H         2.635287        -0.275192        -1.974263
 H         2.433291        -1.889188        -0.999569
 H         4.597919        -1.293436         2.228041
 H         4.749032         0.432453         2.764852
 H         2.237590        -1.763203         1.145427
