19
Iteration:  1879charge 0 multiplicity 1
 C        -0.127415         0.028753         0.065550
 C         1.440575        -0.030488         0.045296
 C         2.399733         1.104710         0.182715
 C         3.241801        -0.228968         0.092397
 C         2.301870        -0.673535        -1.043397
 O         4.532990        -0.434429         0.639192
 C         4.304445         0.038199         2.040782
 O         2.797293        -0.264634         2.461509
 C         2.302716        -0.762888         1.132787
 H        -0.430348         0.676794         0.858153
 H        -0.547907         0.293730        -0.910103
 H        -0.514646        -1.024437         0.215481
 H         2.482415         1.887420        -0.543718
 H         2.186413         1.551504         1.195508
 H         2.331906        -0.100027        -1.994614
 H         2.220024        -1.759996        -1.242093
 H         4.946867        -0.582800         2.590899
 H         4.413252         1.102023         2.215851
 H         2.178586        -1.921501         1.025014
