19
Iteration:  2037charge 0 multiplicity 1
 C        -0.184513        -0.107942         0.010736
 C         1.372743         0.046087         0.126871
 C         2.453567         1.123339         0.040166
 C         3.220197        -0.126221         0.131619
 C         2.284815        -0.771525        -0.956929
 O         4.503314        -0.119754         0.693222
 C         4.302767        -0.349906         2.070870
 O         2.897180        -0.199057         2.353401
 C         2.269797        -0.665655         1.194221
 H        -0.667000         0.598029         0.737359
 H        -0.602268         0.215192        -0.951466
 H        -0.548181        -1.100622         0.167145
 H         2.500854         1.743484        -0.951020
 H         2.669551         1.796672         0.876654
 H         2.503440        -0.468482        -1.953219
 H         2.155959        -1.880319        -0.894764
 H         4.481104        -1.403471         2.307060
 H         4.986334         0.295739         2.622532
 H         2.392405        -1.805594         1.099920
