19
Iteration:  3441charge 0 multiplicity 1
 C        -0.128194         0.024439        -0.011831
 C         1.329386        -0.083664         0.043698
 C         2.319617         1.085904         0.115356
 C         3.212932        -0.057234         0.105926
 C         2.361770        -0.780972        -1.004264
 O         4.614369        -0.097574         0.699946
 C         4.298915        -0.232557         2.189587
 O         2.852104        -0.268520         2.356289
 C         2.303617        -0.806254         1.123557
 H        -0.549225         0.804274         0.613014
 H        -0.432606         0.144982        -1.048438
 H        -0.683326        -0.886578         0.459405
 H         2.289064         1.744156        -0.778812
 H         2.225447         1.789926         0.967077
 H         2.426591        -0.608818        -2.072985
 H         2.236577        -1.938359        -0.843618
 H         4.892742        -1.125540         2.438632
 H         4.497525         0.700248         2.802440
 H         2.176269        -1.900812         1.032555
