19
Iteration:  1384charge 0 multiplicity 1
 C        -0.183892         0.095932         0.134738
 C         1.377123        -0.101160         0.025743
 C         2.330033         1.112046         0.024289
 C         3.238715        -0.104288         0.136387
 C         2.428291        -0.861773        -0.948996
 O         4.569286        -0.016499         0.567427
 C         4.272096        -0.351425         2.030859
 O         2.800255        -0.337893         2.495576
 C         2.305828        -0.695383         1.137259
 H        -0.398985         0.705167         1.039246
 H        -0.447097         0.756567        -0.664403
 H        -0.806488        -0.695130        -0.025074
 H         2.337407         1.671826        -0.948589
 H         2.319775         1.838342         0.953278
 H         2.646332        -0.361468        -1.910923
 H         2.461631        -1.916019        -0.878289
 H         4.695596        -1.309639         2.353111
 H         4.732637         0.384735         2.670759
 H         2.240960        -1.872769         1.131900
