19
Iteration:  3274charge 0 multiplicity 1
 C        -0.098226        -0.049594        -0.001555
 C         1.337041        -0.050701         0.052078
 C         2.362573         1.144526         0.081720
 C         3.209905        -0.191102         0.172754
 C         2.406069        -0.668896        -1.011366
 O         4.523494        -0.230353         0.649447
 C         4.206928        -0.060054         2.146399
 O         2.856339        -0.332401         2.385307
 C         2.331789        -0.792760         1.128326
 H        -0.338948         0.602970         0.874827
 H        -0.465580         0.314506        -0.966150
 H        -0.650931        -0.984415         0.340982
 H         2.326389         1.661713        -0.983839
 H         2.491455         1.696836         1.068445
 H         2.614624        -0.103124        -2.017820
 H         2.252595        -1.763823        -1.113659
 H         4.782417        -0.738524         2.824225
 H         4.404752         0.934147         2.504577
 H         2.345982        -1.941008         1.303267
