19
Iteration:    77charge 0 multiplicity 1
 C        -0.132668        -0.072176         0.012237
 C         1.382387         0.006915         0.126256
 C         2.333378         1.164777        -0.044521
 C         3.233111        -0.134246         0.132298
 C         2.338738        -0.791651        -1.003205
 O         4.484684        -0.039321         0.696128
 C         4.316429        -0.432629         2.043703
 O         2.898444        -0.230684         2.473757
 C         2.318192        -0.646382         1.196076
 H        -0.591368         0.508504         0.854723
 H        -0.535062         0.254432        -0.853294
 H        -0.413120        -1.128558         0.047087
 H         2.361022         1.722772        -0.992079
 H         2.366497         1.821212         0.852641
 H         2.391014        -0.278351        -1.977142
 H         2.074397        -1.835001        -1.054040
 H         4.448286        -1.459351         2.039514
 H         4.968004         0.012709         2.763350
 H         2.241754        -1.764117         1.266385
