19
Iteration:   128charge 0 multiplicity 1
 C        -0.005150         0.064394         0.105332
 C         1.403428        -0.168142         0.164702
 C         2.305380         1.181407         0.183500
 C         3.248808        -0.108917         0.039769
 C         2.318362        -0.786089        -1.065824
 O         4.547094        -0.180212         0.661672
 C         4.250831        -0.170213         2.097479
 O         2.796415        -0.275230         2.342959
 C         2.306380        -0.814313         1.074095
 H        -0.273704         0.972117         0.837256
 H        -0.259714         0.357958        -0.951123
 H        -0.629575        -0.818982         0.187134
 H         2.187480         1.829145        -0.682627
 H         2.342192         1.522398         1.147949
 H         2.198263        -0.351889        -2.011366
 H         2.439783        -1.894849        -0.992956
 H         4.778218        -0.991775         2.756037
 H         4.388930         0.844561         2.485009
 H         2.309967        -1.904496         1.171911
