19
Iteration:  3490
 C        -0.120810        -0.042432        -0.030640
 C         1.366521        -0.052671         0.038169
 C         2.302494         1.131680         0.152912
 C         3.268417        -0.209289         0.150974
 C         2.388587        -0.698896        -0.943710
 O         4.537009        -0.305625         0.679664
 C         4.287016        -0.031542         2.113258
 O         2.841097        -0.278338         2.356565
 C         2.287791        -0.762037         1.148891
 H        -0.626122         0.180142         0.948018
 H        -0.540506         0.652169        -0.791550
 H        -0.430250        -1.024562        -0.321414
 H         2.355711         1.810690        -0.706293
 H         2.233644         1.749235         1.038251
 H         2.402305        -0.059794        -1.875034
 H         2.399341        -1.701396        -1.254715
 H         4.927554        -0.782175         2.666288
 H         4.674387         1.095487         2.218445
 H         2.108893        -1.944286         1.156614
