19
Iteration:  1995charge 0 multiplicity 1
 C        -0.085344        -0.074631         0.071866
 C         1.368198        -0.075220         0.044013
 C         2.305788         1.154253         0.083502
 C         3.164176        -0.063457         0.142402
 C         2.405608        -0.733774        -0.949675
 O         4.467095        -0.285823         0.680421
 C         4.283461        -0.441010         2.085771
 O         2.887700        -0.034187         2.344543
 C         2.357040        -0.649954         1.115389
 H        -0.450564         0.302023         1.060714
 H        -0.517139         0.492859        -0.800562
 H        -0.410050        -1.136193        -0.061878
 H         2.316004         1.810260        -0.878628
 H         2.261417         1.783164         0.962302
 H         2.472393        -0.298832        -1.924554
 H         2.170238        -1.826929        -0.942330
 H         4.559858        -1.383871         2.361520
 H         4.741779         0.350471         2.652020
 H         2.505685        -1.702346         1.264770
