19
Iteration:  4781charge 0 multiplicity 1
 C        -0.113571        -0.074603        -0.021547
 C         1.341431        -0.040551         0.099133
 C         2.405699         1.119364         0.137047
 C         3.197278        -0.218519         0.162178
 C         2.302099        -0.660867        -1.102975
 O         4.556255        -0.296998         0.748409
 C         4.264762         0.028525         2.082314
 O         2.850084        -0.287790         2.398396
 C         2.304162        -0.815305         1.152562
 H        -0.576773         0.024682         0.924909
 H        -0.389057         0.821682        -0.696263
 H        -0.538873        -0.951674        -0.511178
 H         2.657627         1.729885        -0.782720
 H         2.604785         1.675310         1.071481
 H         2.387338        -0.017441        -1.965147
 H         2.192797        -1.818598        -1.281010
 H         4.997375        -0.632515         2.754130
 H         4.467664         1.046296         2.211602
 H         2.185201        -1.927515         1.041138
