19
Iteration:  1002
 C        -0.125599        -0.187478        -0.024709
 C         1.320581         0.040237         0.097180
 C         2.297717         1.195760         0.142735
 C         3.238733        -0.124587         0.144389
 C         2.298479        -0.606745        -0.993446
 O         4.550981        -0.286826         0.615986
 C         4.381449        -0.343723         2.073746
 O         2.908565        -0.186574         2.377342
 C         2.280586        -0.682382         1.211739
 H        -0.517271         0.242626         0.948130
 H        -0.614013         0.434141        -0.764043
 H        -0.351949        -1.200826        -0.042543
 H         2.377836         1.898553        -0.729551
 H         2.236645         1.797065         1.022203
 H         2.222110        -0.074256        -2.049682
 H         1.960725        -1.719524        -1.199184
 H         4.792223        -1.277689         2.442793
 H         4.937819         0.521905         2.561907
 H         2.217530        -1.880394         1.310026
