19
Iteration:  1393
 C        -0.138102         0.088103         0.142724
 C         1.288085        -0.033225         0.087168
 C         2.340048         1.108423         0.001416
 C         3.271974        -0.162748         0.123064
 C         2.438316        -0.826697        -0.993541
 O         4.578551         0.001922         0.645528
 C         4.206474        -0.337913         2.088392
 O         2.892461        -0.313711         2.402926
 C         2.236709        -0.738646         1.138641
 H        -0.411325         0.604415         1.116594
 H        -0.468531         0.621460        -0.763159
 H        -0.709248        -0.814321         0.200619
 H         2.524548         1.662850        -0.981908
 H         2.146179         1.828466         0.923553
 H         2.583308        -0.578913        -2.084683
 H         2.510664        -1.974075        -1.051457
 H         4.682461        -1.392432         2.032349
 H         4.743686         0.353768         2.720762
 H         2.055138        -1.825778         1.272265
