19
Iteration:  4956charge 0 multiplicity 1
 C        -0.119148        -0.125168        -0.061628
 C         1.390589        -0.040495         0.132710
 C         2.418935         1.132942         0.191605
 C         3.263897        -0.114880         0.130097
 C         2.368189        -0.741549        -0.973121
 O         4.562218        -0.198363         0.606464
 C         4.220800        -0.287655         2.097776
 O         2.779898        -0.083889         2.357576
 C         2.286030        -0.740269         1.177479
 H        -0.751460         0.104295         0.886303
 H        -0.503096         0.674699        -0.802630
 H        -0.372547        -1.111516        -0.390723
 H         2.599094         1.876092        -0.614235
 H         2.273247         1.745651         1.213470
 H         2.387203        -0.525044        -2.045220
 H         2.332231        -1.927017        -0.932661
 H         4.591568        -1.314855         2.368876
 H         4.858202         0.471839         2.554943
 H         2.074596        -1.806291         1.211064
