19
Iteration:  4046charge 0 multiplicity 1
 C        -0.063564        -0.175411         0.038345
 C         1.370376        -0.026186        -0.002752
 C         2.381341         1.137322         0.068674
 C         3.299341        -0.101555         0.115034
 C         2.373846        -0.767989        -0.965580
 O         4.530349        -0.081375         0.687414
 C         4.194436        -0.399194         2.176142
 O         2.817203        -0.093225         2.317744
 C         2.290338        -0.717497         1.138002
 H        -0.369799         0.115705         1.162220
 H        -0.693986         0.543051        -0.460418
 H        -0.582590        -1.141003        -0.054153
 H         2.420593         1.790291        -0.820297
 H         2.390969         1.860726         0.886998
 H         2.567371        -0.267930        -1.925273
 H         2.275055        -1.810296        -0.921676
 H         4.365743        -1.484280         2.423762
 H         4.684460         0.238771         2.906587
 H         2.144481        -1.775945         1.112757
