19
Iteration:  2455charge 0 multiplicity 1
 C        -0.086006        -0.071881         0.048212
 C         1.395616        -0.065773         0.016298
 C         2.409196         1.176018         0.087876
 C         3.272984        -0.182975         0.149597
 C         2.237391        -0.782558        -0.978825
 O         4.587753        -0.159576         0.647062
 C         4.263818        -0.190616         2.159513
 O         2.781413        -0.246279         2.408376
 C         2.273806        -0.728417         1.078117
 H        -0.324993         0.424990         0.995374
 H        -0.623975         0.597535        -0.736250
 H        -0.716524        -1.082933        -0.018547
 H         2.488687         1.794218        -0.756096
 H         2.562422         1.794191         0.979240
 H         2.232753        -0.237085        -1.934319
 H         2.320318        -1.856415        -1.050055
 H         4.915183        -1.053734         2.424014
 H         4.699413         0.750969         2.408047
 H         2.250999        -1.826402         1.285303
