19
Iteration:  3830charge 0 multiplicity 1
 C        -0.112297        -0.037165        -0.060623
 C         1.376572        -0.101506         0.064166
 C         2.319680         1.130825         0.131525
 C         3.210498        -0.214654         0.133907
 C         2.416557        -0.695142        -0.981581
 O         4.502341        -0.221810         0.649261
 C         4.268572        -0.090394         2.132712
 O         2.874010        -0.279581         2.393022
 C         2.284561        -0.764818         1.139518
 H        -0.483546         0.593581         0.829412
 H        -0.537037         0.553409        -0.928256
 H        -0.581062        -0.984060         0.063476
 H         2.327700         1.853294        -0.725926
 H         2.333719         1.687091         1.087381
 H         2.664431        -0.079976        -1.860991
 H         2.500385        -1.855465        -0.992719
 H         4.758270        -0.936209         2.586717
 H         4.461215         0.944086         2.419501
 H         2.277865        -1.827965         1.340796
