19
Iteration:  2439charge 0 multiplicity 1
 C        -0.187398        -0.072376         0.097087
 C         1.347521         0.015962         0.100925
 C         2.376887         1.124726         0.023968
 C         3.273423        -0.110853         0.078800
 C         2.340404        -0.723488        -0.997847
 O         4.594373        -0.250061         0.729721
 C         4.260553        -0.190052         2.122941
 O         2.827873        -0.243010         2.312734
 C         2.348200        -0.742782         1.164742
 H        -0.698090         0.428951         0.957721
 H        -0.598874         0.281349        -0.808983
 H        -0.264787        -1.088896         0.061752
 H         2.442474         1.828652        -0.919235
 H         2.253552         1.807604         0.884332
 H         2.416804        -0.356829        -2.078390
 H         2.075621        -1.818582        -1.019871
 H         4.581870        -1.079558         2.666033
 H         4.631396         0.761068         2.673940
 H         2.207716        -1.829742         1.030034
