19
Iteration:  3069charge 0 multiplicity 1
 C        -0.141013        -0.085582        -0.001358
 C         1.328649        -0.047112         0.022147
 C         2.330209         1.094221         0.095579
 C         3.287790        -0.128871         0.118730
 C         2.365623        -0.759364        -1.014440
 O         4.597508        -0.115598         0.720650
 C         4.325976        -0.290099         2.212128
 O         2.826532        -0.251213         2.325019
 C         2.277117        -0.662634         1.172530
 H        -0.634655         0.652739         0.689862
 H        -0.788335         0.080848        -0.876584
 H        -0.834163        -0.975017         0.296285
 H         2.454490         1.693538        -0.821757
 H         2.349204         1.929938         0.798684
 H         2.370246        -0.112434        -1.963584
 H         2.287969        -1.786406        -1.144088
 H         4.814766        -1.263966         2.448274
 H         4.754654         0.570485         2.746269
 H         2.069146        -1.708076         1.047813
