19
Iteration:  4327
 C        -0.079065        -0.070483        -0.044291
 C         1.420627        -0.085316         0.106430
 C         2.251779         1.237620         0.082174
 C         3.216301        -0.086111         0.078305
 C         2.502144        -0.844756        -0.978329
 O         4.524067        -0.114906         0.673988
 C         4.287637        -0.351203         2.036631
 O         2.820197        -0.179331         2.419006
 C         2.214024        -0.709594         1.232334
 H        -0.405851         0.883708         0.388803
 H        -0.275359        -0.032441        -1.138802
 H        -0.468199        -0.975772         0.524536
 H         2.198620         1.935797        -0.806112
 H         2.318667         1.745983         1.019153
 H         2.350168        -0.412629        -1.969383
 H         2.459856        -1.887324        -0.870682
 H         4.456319        -1.381337         2.307033
 H         4.843023         0.245267         2.752773
 H         2.166499        -1.829336         1.359674
