19
Iteration:  3204
 C        -0.160322        -0.027398        -0.033838
 C         1.405696        -0.089632         0.066774
 C         2.363527         1.114848         0.182063
 C         3.192477        -0.215719         0.145872
 C         2.314189        -0.703898        -1.095716
 O         4.597603        -0.227842         0.715745
 C         4.272391         0.041175         2.094693
 O         2.837990        -0.346193         2.383973
 C         2.285875        -0.815983         1.119503
 H        -0.234627         0.544069         0.982107
 H        -0.370469         0.600429        -0.962568
 H        -0.698894        -0.956509         0.024730
 H         2.516356         1.604481        -0.724101
 H         2.505629         1.666877         1.068924
 H         2.463922        -0.123225        -1.936854
 H         2.290957        -1.794803        -1.148613
 H         4.848308        -0.608317         2.705168
 H         4.359875         1.075499         2.503044
 H         2.176664        -1.816186         1.352411
