19
Iteration:  4041
 C        -0.074745        -0.169351         0.059112
 C         1.397299        -0.050829         0.028118
 C         2.391559         1.162588         0.043978
 C         3.245586        -0.126145         0.136296
 C         2.400688        -0.754242        -0.979564
 O         4.553632        -0.062096         0.709413
 C         4.173991        -0.419405         2.158480
 O         2.817263        -0.103355         2.278175
 C         2.262005        -0.694945         1.183785
 H        -0.329706         0.136880         1.021075
 H        -0.611503         0.638576        -0.514290
 H        -0.567801        -1.170222        -0.054309
 H         2.480320         1.759317        -0.870454
 H         2.378467         1.729682         0.999665
 H         2.459124        -0.251564        -2.022821
 H         2.376275        -1.941067        -0.939207
 H         4.496354        -1.489265         2.160917
 H         4.597756         0.364609         2.827090
 H         2.145072        -1.831417         1.238875
