19
Iteration:  1077
 C        -0.083184         0.064399         0.173834
 C         1.342566        -0.115950         0.055050
 C         2.384325         1.144499         0.002017
 C         3.181005        -0.106208         0.088513
 C         2.240384        -0.761077        -1.001891
 O         4.527138         0.057292         0.732908
 C         4.257945        -0.336502         2.084174
 O         2.890448        -0.384086         2.377897
 C         2.375302        -0.799292         1.122613
 H        -0.453026         0.800509         1.014328
 H        -0.443847         0.634883        -0.775344
 H        -0.508592        -0.923580         0.132599
 H         2.433004         1.708364        -0.994956
 H         2.495759         1.795432         0.846350
 H         2.268776        -0.376392        -2.080794
 H         2.338080        -1.900087        -0.993622
 H         4.637983        -1.424601         2.141947
 H         4.733523         0.370434         2.796048
 H         2.349834        -1.872834         1.065964
