19
Iteration:  1888charge 0 multiplicity 1
 C        -0.066544         0.028967         0.093749
 C         1.336604        -0.056600         0.042841
 C         2.422434         1.116896         0.162631
 C         3.184574        -0.158935         0.170932
 C         2.348065        -0.728683        -1.094201
 O         4.487932        -0.390559         0.613480
 C         4.327727         0.015528         2.063307
 O         2.790304        -0.300861         2.457790
 C         2.305489        -0.767768         1.106271
 H        -0.469958         0.752802         0.752066
 H        -0.405457         0.468802        -0.877005
 H        -0.689126        -0.834121         0.403251
 H         2.480111         1.699150        -0.707628
 H         2.388682         1.507933         1.132434
 H         2.512455        -0.074303        -1.936450
 H         2.500805        -1.812755        -1.256315
 H         5.086968        -0.600080         2.702243
 H         4.552800         1.100367         2.086025
 H         2.199491        -1.892063         1.228590
