19
Iteration:  1603charge 0 multiplicity 1
 C        -0.120875        -0.035243         0.112865
 C         1.385802        -0.015868         0.096987
 C         2.537383         1.175613         0.123204
 C         3.244292        -0.254542         0.159149
 C         2.293407        -0.709946        -1.037275
 O         4.461956        -0.319914         0.686078
 C         4.257681         0.002304         2.075840
 O         2.837273        -0.310844         2.350365
 C         2.279752        -0.780739         1.071541
 H        -0.543238         0.511011         1.012862
 H        -0.397179         0.351556        -0.890906
 H        -0.542511        -1.047465         0.213315
 H         2.667358         1.806150        -0.804405
 H         2.461909         1.755176         1.060253
 H         2.379483        -0.151961        -2.019429
 H         2.128625        -1.753960        -1.319654
 H         4.957241        -0.584244         2.659893
 H         4.391772         1.030920         2.226645
 H         2.092561        -1.756155         1.264848
