19
Iteration:  4025
 C        -0.108988        -0.056960         0.080037
 C         1.364671        -0.096266         0.087733
 C         2.365407         1.128048         0.043906
 C         3.266340        -0.121346         0.125672
 C         2.453714        -0.803487        -1.037446
 O         4.530924        -0.031620         0.747398
 C         4.252843        -0.359427         2.040530
 O         2.782874        -0.118940         2.393391
 C         2.282831        -0.765908         1.132494
 H        -0.746102         0.255475         0.997176
 H        -0.468769         0.457242        -0.797111
 H        -0.425374        -1.075344        -0.121069
 H         2.448018         1.689842        -0.911750
 H         2.363123         1.913517         0.803634
 H         2.432517        -0.232264        -1.921669
 H         2.506513        -1.823285        -1.114639
 H         4.197253        -1.398683         2.365927
 H         4.930644         0.070284         2.770134
 H         2.134403        -1.873342         1.218242
