19
Iteration:  1666charge 0 multiplicity 1
 C        -0.152946         0.040591        -0.057983
 C         1.352193        -0.104873         0.131728
 C         2.365029         1.103744         0.099217
 C         3.248901        -0.189912         0.194560
 C         2.313248        -0.799482        -0.944229
 O         4.571432        -0.056339         0.549745
 C         4.345162        -0.349173         2.095506
 O         2.827992        -0.146117         2.443604
 C         2.285544        -0.755959         1.182500
 H        -0.617550         0.578063         0.834903
 H        -0.430620         0.591712        -0.957748
 H        -0.603885        -0.889944        -0.267749
 H         2.392693         1.613490        -0.794706
 H         2.323500         1.855856         0.891523
 H         2.414456        -0.342122        -1.949916
 H         2.258488        -1.865404        -1.007292
 H         4.665878        -1.380155         2.260904
 H         4.998615         0.324651         2.706939
 H         2.037682        -1.920632         1.191059
