19
Iteration:  2137charge 0 multiplicity 1
 C        -0.140886        -0.048230         0.122131
 C         1.295770         0.032720         0.103318
 C         2.486098         1.157195         0.093618
 C         3.227728        -0.178357         0.151445
 C         2.338317        -0.690751        -0.984729
 O         4.499832        -0.390402         0.651263
 C         4.295368        -0.023865         2.137497
 O         2.822234        -0.285216         2.329369
 C         2.322034        -0.737060         1.083229
 H        -0.588408         0.128452         1.041481
 H        -0.518270         0.461805        -0.784579
 H        -0.261639        -1.077175        -0.238586
 H         2.418267         1.742401        -0.937775
 H         2.469104         1.887939         0.940000
 H         2.546294        -0.346550        -2.019013
 H         2.295512        -1.777546        -0.909453
 H         4.866533        -0.927843         2.491194
 H         4.559693         1.061523         2.344493
 H         2.078166        -1.829840         1.119942
