19
Iteration:  4495
 C        -0.143489        -0.067642        -0.051756
 C         1.355396        -0.003654        -0.011766
 C         2.306709         1.177773         0.031220
 C         3.250327        -0.150754         0.163922
 C         2.358394        -0.685533        -0.940627
 O         4.482758        -0.281574         0.673745
 C         4.322443        -0.149240         2.197109
 O         2.863102        -0.277392         2.429705
 C         2.358721        -0.787256         1.116648
 H        -0.554640         0.796269         0.661939
 H        -0.625851         0.054327        -1.090888
 H        -0.415828        -1.083581         0.352995
 H         2.453531         1.909127        -0.733249
 H         2.183814         1.833176         0.915408
 H         2.399885        -0.136931        -1.887036
 H         2.340329        -1.767436        -1.136405
 H         4.863786        -0.957804         2.765716
 H         4.627790         0.877086         2.434557
 H         2.404556        -1.932164         1.219323
