19
Iteration:  3988charge 0 multiplicity 1
 C        -0.132121        -0.011560        -0.070738
 C         1.370172        -0.056731         0.085196
 C         2.275321         1.158723         0.066893
 C         3.221333        -0.012145         0.162459
 C         2.333491        -0.836610        -0.949944
 O         4.566851        -0.106769         0.756448
 C         4.363979        -0.272098         2.133745
 O         2.826179        -0.271372         2.390629
 C         2.317481        -0.781741         1.103663
 H        -0.538711         0.796337         0.575238
 H        -0.375993         0.323858        -1.118956
 H        -0.618743        -1.052305         0.140438
 H         2.287404         1.610847        -0.904641
 H         2.048011         1.748897         0.946819
 H         2.360291        -0.515483        -2.056082
 H         2.535603        -1.958107        -1.031102
 H         4.858859        -1.219626         2.278031
 H         4.881034         0.565532         2.564051
 H         2.192072        -1.840139         1.099980
