19
Iteration:  1909
 C        -0.172984         0.139653         0.074749
 C         1.416985        -0.023019         0.121724
 C         2.363596         1.111264         0.058841
 C         3.230291        -0.225391         0.146675
 C         2.431830        -0.745018        -0.956974
 O         4.552541        -0.254936         0.664832
 C         4.202597        -0.040694         2.054761
 O         2.880694        -0.353541         2.326106
 C         2.307948        -0.838356         1.145278
 H        -0.536973         0.810658         0.851431
 H        -0.671632         0.491231        -0.873393
 H        -0.758147        -0.740416         0.430074
 H         2.328026         1.554321        -0.918904
 H         2.136482         1.643392         0.902796
 H         2.371803        -0.241707        -1.896072
 H         2.314420        -1.843726        -0.919514
 H         4.948558        -0.916607         2.465193
 H         4.421002         0.969998         2.522501
 H         2.073365        -1.882383         1.052311
