19
Iteration:  3582
 C        -0.083003         0.092615         0.020178
 C         1.424555        -0.134388         0.040173
 C         2.305444         1.154519         0.121354
 C         3.194069        -0.155573         0.144590
 C         2.405333        -0.762331        -0.972137
 O         4.550267        -0.188794         0.698956
 C         4.201756        -0.018951         2.155064
 O         2.865625        -0.394679         2.335970
 C         2.324588        -0.852621         1.075062
 H        -0.476818         0.821406         0.758108
 H        -0.473917         0.443344        -0.952870
 H        -0.835336        -0.830852         0.220158
 H         2.132421         1.649952        -0.841129
 H         2.170343         1.854209         0.972071
 H         2.424212        -0.390142        -1.965481
 H         2.495385        -1.908722        -1.024723
 H         4.981835        -0.697059         2.667129
 H         4.369809         1.104390         2.486788
 H         2.203901        -1.941232         1.322256
