19
Iteration:  3403charge 0 multiplicity 1
 C        -0.105914        -0.126427         0.090539
 C         1.365382        -0.048765         0.057025
 C         2.306381         1.162735         0.070680
 C         3.245244        -0.120315         0.165181
 C         2.395567        -0.698042        -1.018670
 O         4.591568        -0.109782         0.655114
 C         4.219011        -0.346439         2.147119
 O         2.846690        -0.157079         2.354338
 C         2.218308        -0.762804         1.119544
 H        -0.461346         0.814956         0.606450
 H        -0.471929         0.060618        -0.955662
 H        -0.369327        -1.176167         0.328695
 H         2.538893         1.501796        -0.940947
 H         2.443300         1.920180         0.846477
 H         2.382564        -0.263105        -2.049376
 H         2.545336        -1.742943        -0.973049
 H         4.470218        -1.414239         2.489935
 H         4.754892         0.353924         2.837673
 H         2.338530        -1.837630         1.294832
