19
Iteration:  3543charge 0 multiplicity 1
 C        -0.091211        -0.057161         0.048883
 C         1.393702        -0.063294         0.079108
 C         2.439611         1.148224         0.146694
 C         3.267865        -0.235267         0.138075
 C         2.350407        -0.662952        -1.050148
 O         4.554392        -0.240379         0.669678
 C         4.161301         0.036773         2.084956
 O         2.814426        -0.331117         2.355558
 C         2.281303        -0.882106         1.196880
 H        -0.502097         0.222747         1.035562
 H        -0.452381         0.794365        -0.593611
 H        -0.332321        -0.921776        -0.417225
 H         2.500817         1.625239        -0.852138
 H         2.419547         1.879387         0.958323
 H         2.550438        -0.219228        -2.071772
 H         2.132389        -1.715158        -1.179731
 H         4.732422        -0.446997         2.874869
 H         4.279518         1.097926         2.185222
 H         2.050435        -1.935984         1.139716
