19
Iteration:  2396
 C        -0.120816        -0.027260         0.030692
 C         1.377330        -0.044120        -0.011275
 C         2.339300         1.157210         0.172213
 C         3.238141        -0.191926         0.200867
 C         2.310973        -0.745609        -1.030947
 O         4.578934        -0.222312         0.647154
 C         4.294086        -0.250642         2.050564
 O         2.844506        -0.109623         2.403910
 C         2.281566        -0.790089         1.121891
 H        -0.645789         0.645914         0.828980
 H        -0.539868         0.194498        -0.946377
 H        -0.407937        -0.992261         0.370389
 H         2.140574         1.690103        -0.802122
 H         2.409353         1.651488         1.135635
 H         2.612335        -0.345722        -2.060259
 H         2.402855        -1.876504        -1.007502
 H         4.764924        -1.033293         2.651305
 H         4.538581         0.658126         2.555477
 H         2.218562        -1.909463         1.259759
