19
Iteration:  1632charge 0 multiplicity 1
 C        -0.147821         0.064013         0.001657
 C         1.309879        -0.083927         0.072501
 C         2.276338         1.176128         0.091594
 C         3.268480        -0.155341         0.179514
 C         2.343987        -0.771605        -0.948241
 O         4.592071        -0.299495         0.595025
 C         4.326165        -0.149409         2.178432
 O         2.860272        -0.261403         2.391274
 C         2.329787        -0.751231         1.073272
 H        -0.607887         0.611248         0.876145
 H        -0.334397         0.664248        -0.889303
 H        -0.631842        -0.896670         0.039526
 H         2.241785         1.683943        -0.813358
 H         2.164642         1.824470         0.999148
 H         2.354384        -0.336038        -1.953294
 H         2.267815        -1.846864        -0.962149
 H         4.855422        -1.020197         2.580473
 H         4.643622         0.915079         2.437471
 H         2.245273        -1.916117         1.331617
