19
Iteration:  1783
 C        -0.119929         0.097686         0.061545
 C         1.367814        -0.112821         0.139925
 C         2.363323         1.122263         0.067669
 C         3.233244        -0.183998         0.119122
 C         2.324207        -0.788749        -0.995992
 O         4.586628        -0.183176         0.539451
 C         4.217416        -0.166305         2.191180
 O         2.811863        -0.263913         2.403867
 C         2.341664        -0.811381         1.150140
 H        -0.510826         0.805732         0.812188
 H        -0.297615         0.612455        -0.901012
 H        -0.781719        -0.778499        -0.153047
 H         2.549920         1.810883        -0.770954
 H         2.377897         1.815242         1.027320
 H         2.293848        -0.269944        -1.988089
 H         2.298996        -1.897712        -1.085309
 H         4.734559        -1.077816         2.431555
 H         4.722207         0.754783         2.667608
 H         2.417030        -1.849780         1.277055
