19
Iteration:   112
 C        -0.165132         0.102834         0.081945
 C         1.389004        -0.092511         0.026982
 C         2.261144         1.085764         0.093837
 C         3.270307        -0.113365         0.135452
 C         2.371736        -0.794770        -0.949409
 O         4.559495        -0.109435         0.642720
 C         4.241703        -0.235875         2.105699
 O         2.821916        -0.297086         2.372741
 C         2.418191        -0.801262         1.115893
 H        -0.410139         0.813528         0.792675
 H        -0.540020         0.560738        -0.906668
 H        -0.724023        -0.747926         0.508548
 H         2.259231         1.780417        -0.782593
 H         2.162084         1.776939         1.029802
 H         2.454823        -0.410459        -2.032071
 H         2.271074        -1.880131        -1.035090
 H         4.666673        -1.183531         2.288182
 H         4.756049         0.542658         2.704103
 H         2.474046        -1.900781         1.073221
