19
Iteration:  2969
 C        -0.057351        -0.114827        -0.017457
 C         1.388734         0.078044         0.159157
 C         2.363663         1.143153         0.121336
 C         3.236873        -0.144806         0.082208
 C         2.370647        -0.757424        -1.017824
 O         4.504688        -0.198371         0.681589
 C         4.254310        -0.274703         2.132093
 O         2.808489        -0.205584         2.335646
 C         2.314590        -0.700943         1.186193
 H        -0.683837        -0.011761         0.867833
 H        -0.603239         0.337395        -0.886957
 H        -0.234725        -1.240152        -0.207803
 H         2.357052         1.796799        -0.772752
 H         2.453640         1.788830         0.971853
 H         2.347468        -0.200554        -1.920876
 H         2.251895        -1.806242        -1.080343
 H         4.670347        -1.150895         2.589056
 H         4.728943         0.623339         2.525504
 H         2.158309        -1.751683         1.105728
