19
Iteration:  1319charge 0 multiplicity 1
 C        -0.109998        -0.131753         0.016700
 C         1.332098         0.005481         0.067156
 C         2.486037         1.210947         0.269422
 C         3.203213        -0.145689         0.216642
 C         2.313100        -0.623991        -1.028405
 O         4.472942        -0.346890         0.626489
 C         4.292471        -0.157648         1.970004
 O         2.855081        -0.218874         2.349997
 C         2.283485        -0.775593         1.181587
 H        -0.716813         0.259575         0.896861
 H        -0.409021         0.313874        -0.911389
 H        -0.330036        -1.185358        -0.083462
 H         2.674002         1.789617        -0.630567
 H         2.569869         1.761853         1.268893
 H         2.384867        -0.174451        -2.038535
 H         2.115262        -1.633174        -1.149504
 H         4.866620        -0.891842         2.555120
 H         4.739348         0.817132         2.147377
 H         2.162863        -1.929951         1.218430
