19
Iteration:  2627charge 0 multiplicity 1
 C        -0.078258         0.030058         0.058684
 C         1.464000        -0.070009         0.057264
 C         2.365080         1.138626         0.082757
 C         3.247595        -0.161626         0.135755
 C         2.306194        -0.811729        -0.942972
 O         4.549210        -0.131820         0.701914
 C         4.261827        -0.127196         2.088850
 O         2.800541        -0.289646         2.316985
 C         2.253347        -0.832557         1.127027
 H        -0.647826         0.438846         0.926395
 H        -0.531316         0.714002        -0.746171
 H        -0.416865        -0.948656        -0.192507
 H         2.390889         1.843447        -0.852738
 H         2.456208         1.594560         1.137582
 H         2.439310        -0.259745        -1.927965
 H         2.182992        -1.919034        -1.183153
 H         4.821865        -0.999929         2.568731
 H         4.497045         0.862765         2.789392
 H         2.288838        -1.913351         1.102111
