19
Iteration:  4350
 C        -0.200936        -0.034527        -0.033234
 C         1.382073        -0.109930         0.071812
 C         2.342318         1.133984         0.114091
 C         3.267104        -0.141568         0.148295
 C         2.370107        -0.740193        -0.969215
 O         4.552199        -0.190254         0.676285
 C         4.240115        -0.219029         2.170369
 O         2.843157        -0.168670         2.331933
 C         2.350527        -0.772833         1.111476
 H        -0.607175         0.743965         0.707780
 H        -0.517115         0.208482        -1.046133
 H        -0.438476        -1.060555         0.398458
 H         2.443586         1.648897        -0.848413
 H         2.269518         1.835989         0.914230
 H         2.382787        -0.103676        -1.905552
 H         2.389344        -1.789160        -1.093782
 H         4.520941        -1.150597         2.649727
 H         4.682288         0.585105         2.724570
 H         2.447517        -1.906523         1.216123
