19
Iteration:  3863charge 0 multiplicity 1
 C        -0.130475         0.081630        -0.002237
 C         1.370226        -0.180621         0.115865
 C         2.380225         1.087574         0.059110
 C         3.257037        -0.191785         0.123568
 C         2.292375        -0.761256        -0.974741
 O         4.593756        -0.151478         0.745707
 C         4.226897         0.020333         2.121786
 O         2.774949        -0.397726         2.324385
 C         2.367709        -0.785740         1.112736
 H        -0.304761         0.239838         1.086902
 H        -0.361749         0.953870        -0.633540
 H        -0.721979        -0.732810        -0.289030
 H         2.255789         1.821419        -0.784193
 H         2.469580         1.601836         1.033230
 H         2.461431        -0.339146        -1.971708
 H         2.394693        -1.930528        -1.019436
 H         4.940045        -0.576855         2.650985
 H         4.492949         1.013478         2.441830
 H         2.219090        -1.856623         0.905073
