19
Iteration:   344
 C        -0.117322        -0.063073        -0.045807
 C         1.362214        -0.109361         0.094601
 C         2.245156         1.199380         0.126981
 C         3.249539        -0.121930         0.149597
 C         2.314057        -0.726550        -0.918860
 O         4.562658        -0.216863         0.621434
 C         4.319749        -0.323969         2.081546
 O         2.901212        -0.156510         2.355132
 C         2.319386        -0.712887         1.190481
 H        -0.482722         0.436138         0.815141
 H        -0.340622         0.689096        -0.902257
 H        -0.733494        -0.972493        -0.088401
 H         2.420751         1.853108        -0.873239
 H         2.040403         1.750179         1.048884
 H         2.297784        -0.274050        -1.948245
 H         2.295492        -1.928672        -0.873250
 H         4.758036        -1.261280         2.441899
 H         4.766253         0.511755         2.601712
 H         2.161205        -1.868814         1.223309
