19
Iteration:  4782
 C        -0.115482        -0.079723        -0.024522
 C         1.342641        -0.031562         0.096680
 C         2.407704         1.123170         0.133136
 C         3.208447        -0.225717         0.162692
 C         2.298525        -0.657337        -1.094422
 O         4.557922        -0.294675         0.748145
 C         4.259331         0.025709         2.076180
 O         2.842958        -0.290210         2.400455
 C         2.311786        -0.804684         1.158470
 H        -0.585545         0.002050         0.923110
 H        -0.396266         0.855010        -0.711954
 H        -0.557229        -0.999564        -0.498644
 H         2.634348         1.698670        -0.774729
 H         2.624110         1.651222         1.095332
 H         2.366683        -0.034600        -1.976880
 H         2.189428        -1.802432        -1.302047
 H         5.011481        -0.666848         2.734251
 H         4.477461         1.060793         2.205783
 H         2.178110        -1.953402         1.050156
