19
Iteration:  1800
 C        -0.287638         0.164638        -0.001390
 C         1.344116        -0.092985         0.122358
 C         2.363828         1.096136         0.094657
 C         3.234101        -0.138840         0.135438
 C         2.422864        -0.824683        -0.977185
 O         4.523602        -0.209844         0.720916
 C         4.320798        -0.163472         2.040791
 O         2.902187        -0.292194         2.358698
 C         2.348354        -0.796733         1.124494
 H        -0.567156         0.635095         0.941081
 H        -0.609128         0.927559        -0.750269
 H        -0.727019        -0.839341        -0.086274
 H         2.213126         1.610699        -0.868409
 H         2.462980         1.697384         0.942520
 H         2.387293        -0.339553        -1.942390
 H         2.428498        -1.932858        -0.899204
 H         4.908417        -0.873220         2.688096
 H         4.533447         0.807907         2.429199
 H         2.117876        -1.937174         1.016287
