19
Iteration:   133
 C        -0.022060         0.052639         0.081605
 C         1.435012        -0.159072         0.175362
 C         2.349761         1.141342         0.179868
 C         3.216447        -0.101245         0.067786
 C         2.319346        -0.767585        -1.056558
 O         4.538132        -0.215345         0.652666
 C         4.262767        -0.115951         2.131744
 O         2.794216        -0.281611         2.283252
 C         2.284638        -0.829734         1.113662
 H        -0.408670         0.789350         0.800387
 H        -0.217648         0.495286        -0.898427
 H        -0.600516        -0.873361         0.349809
 H         2.277040         1.903829        -0.615071
 H         2.381887         1.655964         1.230436
 H         2.097104        -0.291657        -2.083345
 H         2.415715        -1.837718        -1.225043
 H         4.837325        -0.826359         2.639600
 H         4.424674         0.887731         2.566340
 H         2.239145        -1.945235         1.148153
