19
Iteration:   941
 C        -0.130777         0.176440         0.132122
 C         1.378832        -0.140463         0.032337
 C         2.341309         1.095031         0.141347
 C         3.169885        -0.111376         0.152947
 C         2.363833        -0.761765        -1.027096
 O         4.529658        -0.117406         0.625602
 C         4.284976        -0.090147         2.057274
 O         2.859731        -0.395703         2.362478
 C         2.374051        -0.946014         1.143923
 H        -0.143202         0.917812         0.919828
 H        -0.543103         0.629714        -0.810529
 H        -0.927996        -0.688684         0.334127
 H         2.514113         1.754131        -0.725655
 H         2.029955         1.632348         1.074516
 H         2.263857        -0.312912        -1.973681
 H         2.262993        -1.797354        -1.009287
 H         4.919431        -0.930020         2.544646
 H         4.423439         0.950422         2.384808
 H         2.501394        -1.956843         1.068376
