19
Iteration:  2229
 C        -0.068977         0.116441         0.013304
 C         1.380463        -0.086779         0.043043
 C         2.354964         1.165664         0.001745
 C         3.152485        -0.118795         0.192745
 C         2.277973        -0.794532        -0.970645
 O         4.508308        -0.241008         0.682412
 C         4.238261        -0.058392         2.075654
 O         2.906997        -0.428824         2.430634
 C         2.392227        -0.784675         1.179217
 H        -0.298930         0.826930         0.858241
 H        -0.568754         0.455131        -0.879303
 H        -0.564707        -0.865913         0.194540
 H         2.485802         1.642901        -1.006410
 H         2.272574         1.883254         0.892119
 H         2.386446        -0.258124        -1.936214
 H         2.217942        -1.930963        -1.090476
 H         4.841557        -0.755706         2.548665
 H         4.361598         1.001670         2.408002
 H         2.407950        -1.901328         0.999648
