19
Iteration:  4857
 C        -0.201557         0.012409         0.013091
 C         1.364382        -0.139770         0.048643
 C         2.318853         1.116137         0.100629
 C         3.276537        -0.196685         0.097780
 C         2.379149        -0.697234        -1.011789
 O         4.557547        -0.101218         0.706791
 C         4.252487        -0.245298         2.199645
 O         2.841361        -0.198086         2.353639
 C         2.394815        -0.804053         1.155643
 H        -0.519626         0.841686         0.552778
 H        -0.430581         0.198864        -1.026130
 H        -0.830773        -0.728291         0.410917
 H         2.386369         1.583850        -0.910406
 H         2.154981         1.739871         1.026447
 H         2.440975        -0.306962        -2.002171
 H         2.352060        -1.859949        -1.243097
 H         4.663039        -1.235730         2.288772
 H         4.720189         0.487953         2.767015
 H         2.182703        -1.816885         1.142677
