19
Iteration:  2140charge 0 multiplicity 1
 C        -0.162458        -0.033840         0.104949
 C         1.311201         0.031036         0.097802
 C         2.435871         1.161029         0.066615
 C         3.247825        -0.194796         0.158815
 C         2.342409        -0.667203        -0.987112
 O         4.490578        -0.408011         0.698958
 C         4.308518        -0.034716         2.111700
 O         2.842368        -0.282700         2.320164
 C         2.357609        -0.748828         1.080021
 H        -0.624086         0.098291         1.089113
 H        -0.595027         0.535937        -0.781097
 H        -0.325453        -1.164828        -0.183575
 H         2.317417         1.748290        -0.958798
 H         2.479861         1.867322         0.989227
 H         2.604886        -0.231367        -2.019528
 H         2.231390        -1.765778        -0.929523
 H         4.893409        -0.775328         2.533987
 H         4.568236         1.060118         2.353804
 H         1.944750        -1.822200         1.221564
