19
Iteration:  4131charge 0 multiplicity 1
 C        -0.170209         0.077216        -0.136832
 C         1.389072        -0.064811         0.123697
 C         2.326982         1.072751         0.173010
 C         3.237349        -0.168413         0.153721
 C         2.310781        -0.723309        -0.912474
 O         4.565592        -0.214059         0.712358
 C         4.271622         0.020097         2.099562
 O         2.902908        -0.350798         2.365858
 C         2.296587        -0.894609         1.102207
 H        -0.512955         0.951784         0.398324
 H        -0.186648         0.261889        -1.168046
 H        -0.662264        -0.913943         0.097914
 H         2.419264         1.571039        -0.774184
 H         2.130984         1.537044         1.126830
 H         2.324221        -0.177271        -2.004488
 H         2.288030        -1.868117        -1.088960
 H         5.003518        -0.605189         2.669098
 H         4.311230         1.090261         2.295922
 H         2.358802        -1.985922         1.181025
