19
Iteration:   226charge 0 multiplicity 1
 C        -0.163150         0.078169        -0.012112
 C         1.334882        -0.117054         0.061084
 C         2.375892         1.015307         0.168105
 C         3.219731        -0.217506         0.150647
 C         2.313714        -0.744538        -1.032127
 O         4.508547        -0.114230         0.695416
 C         4.330182        -0.120429         2.093587
 O         2.935254        -0.248316         2.348791
 C         2.282148        -0.843115         1.141754
 H        -0.575448         0.453287         0.947673
 H        -0.360932         0.920605        -0.738877
 H        -0.719900        -0.804122        -0.254726
 H         2.436528         1.762527        -0.623110
 H         2.370376         1.491963         1.090956
 H         2.403750        -0.224449        -1.939632
 H         2.144659        -1.808792        -1.327656
 H         5.020171        -0.898998         2.623861
 H         4.514462         0.844797         2.570708
 H         2.260609        -1.892032         1.304828
