19
Iteration:  3061
 C        -0.255304        -0.063941        -0.024149
 C         1.363647        -0.062191         0.086906
 C         2.391914         1.177238         0.044675
 C         3.278245        -0.162936         0.133852
 C         2.338953        -0.766521        -1.058602
 O         4.535721        -0.056102         0.733129
 C         4.296070        -0.327647         2.187826
 O         2.867740        -0.236839         2.389818
 C         2.335919        -0.746559         1.104572
 H        -0.453283         0.731541         0.767206
 H        -0.426137         0.234231        -1.103405
 H        -0.574337        -1.058715         0.346514
 H         2.458880         1.767505        -0.843741
 H         2.279642         1.808716         0.946099
 H         2.346937        -0.351636        -2.090992
 H         2.248622        -1.882556        -0.965034
 H         4.828939        -1.191143         2.543662
 H         4.617787         0.569185         2.718050
 H         2.139715        -1.846804         1.228061
