19
Iteration:  4303
 C        -0.233223        -0.116823        -0.077583
 C         1.308755        -0.064456        -0.003119
 C         2.328718         1.130125        -0.020287
 C         3.264286        -0.070929         0.170353
 C         2.363426        -0.753949        -0.888855
 O         4.528863         0.000693         0.719269
 C         4.294743        -0.461026         2.120858
 O         2.942725        -0.169298         2.417829
 C         2.298717        -0.705071         1.168715
 H        -0.571614         0.796524         0.297668
 H        -0.233867         0.030105        -1.225490
 H        -0.579425        -1.039103         0.426823
 H         2.613889         1.692208        -0.994711
 H         2.326856         1.827518         0.897252
 H         2.438794        -0.293820        -1.822374
 H         2.159531        -1.840054        -0.687147
 H         4.464366        -1.515382         2.197596
 H         4.884977         0.016735         2.956372
 H         2.359726        -1.800679         1.335367
