19
Iteration:  3581
 C        -0.090414         0.092828         0.023821
 C         1.424503        -0.140167         0.033685
 C         2.310394         1.150468         0.124921
 C         3.192172        -0.154164         0.138304
 C         2.404097        -0.761959        -0.974058
 O         4.550376        -0.186824         0.705270
 C         4.195498        -0.022904         2.148599
 O         2.873241        -0.394992         2.332018
 C         2.326194        -0.841163         1.080187
 H        -0.476911         0.779127         0.781733
 H        -0.431636         0.436217        -0.953849
 H        -0.827321        -0.793957         0.214956
 H         2.143782         1.658594        -0.827577
 H         2.166370         1.854088         0.960148
 H         2.441178        -0.388728        -1.967212
 H         2.472628        -1.901497        -1.009356
 H         4.952941        -0.713202         2.705845
 H         4.340833         1.112725         2.466959
 H         2.210047        -1.960434         1.338329
