19
Iteration:  4178charge 0 multiplicity 1
 C        -0.168607         0.034372         0.009115
 C         1.386124        -0.017056         0.000486
 C         2.399517         1.153083         0.177664
 C         3.229416        -0.225319         0.193705
 C         2.400856        -0.773016        -1.001425
 O         4.553587        -0.269038         0.707315
 C         4.161170         0.123982         2.083910
 O         2.906910        -0.447170         2.318000
 C         2.269802        -0.799495         1.142044
 H        -0.471432         0.560799         0.999568
 H        -0.550158         0.526881        -0.912218
 H        -0.416803        -1.001365         0.030093
 H         2.658915         1.690730        -0.719277
 H         2.422358         1.653700         1.123983
 H         2.501309        -0.418362        -2.157311
 H         2.394930        -1.887464        -1.057660
 H         4.817520        -0.340206         2.805401
 H         4.063291         1.172787         2.186344
 H         1.989517        -1.810094         1.243140
