19
Iteration:  3159charge 0 multiplicity 1
 C        -0.153881         0.010088        -0.034782
 C         1.438387        -0.088052         0.104709
 C         2.323914         1.121176         0.097707
 C         3.292556        -0.144691         0.110071
 C         2.391274        -0.758061        -0.959533
 O         4.495791        -0.156386         0.685793
 C         4.275214        -0.124074         2.055379
 O         2.835869        -0.335124         2.415944
 C         2.277478        -0.788570         1.153455
 H        -0.552335         0.206644         1.030854
 H        -0.200545         0.803851        -0.827460
 H        -0.543279        -0.926359        -0.499314
 H         2.398142         1.643794        -0.797724
 H         2.102203         1.867865         0.876506
 H         2.277520        -0.192783        -1.828500
 H         2.357283        -1.829952        -0.964964
 H         4.862570        -0.844022         2.618607
 H         4.522896         0.904200         2.373438
 H         2.244083        -1.850296         1.282881
