19
Iteration:   270charge 0 multiplicity 1
 C        -0.164533        -0.094722         0.153823
 C         1.354714        -0.050018         0.098525
 C         2.318609         1.246095        -0.007796
 C         3.272254        -0.054422         0.107791
 C         2.406238        -0.807639        -0.946904
 O         4.537078        -0.086704         0.705887
 C         4.241964        -0.421693         2.116213
 O         2.862063        -0.243610         2.333424
 C         2.322494        -0.667502         1.101273
 H        -0.540058         0.817638         0.724546
 H        -0.409754         0.149510        -0.939714
 H        -0.737957        -0.963079         0.404672
 H         2.282221         1.758015        -0.996336
 H         2.440715         1.952410         0.746025
 H         2.440725        -0.504539        -1.941677
 H         2.461025        -1.922060        -0.976224
 H         4.478316        -1.556050         2.251984
 H         4.904412         0.142327         2.756254
 H         2.188327        -1.723857         1.082737
