19
Iteration:  1776
 C        -0.055611         0.083357         0.049523
 C         1.455835        -0.121597         0.105657
 C         2.342182         1.098828         0.087706
 C         3.257989        -0.195929         0.159037
 C         2.284363        -0.750681        -0.988201
 O         4.556414        -0.163151         0.519254
 C         4.214197        -0.199656         2.187373
 O         2.804275        -0.210511         2.419201
 C         2.326401        -0.814668         1.112365
 H        -0.468286         0.820768         0.809223
 H        -0.320761         0.589020        -0.878787
 H        -0.503261        -0.894176         0.067177
 H         2.412685         1.668560        -0.825355
 H         2.362112         1.629171         0.984394
 H         2.143255        -0.195115        -1.906213
 H         2.071615        -1.796700        -0.976953
 H         4.733056        -1.151207         2.564786
 H         4.659377         0.683575         2.656210
 H         2.151326        -1.914405         1.139892
