19
Iteration:  1449charge 0 multiplicity 1
 C        -0.131907        -0.130834         0.099153
 C         1.343001         0.048198         0.092177
 C         2.342103         1.213368         0.106752
 C         3.280138        -0.183613         0.102768
 C         2.371209        -0.709683        -0.969801
 O         4.565726        -0.223328         0.562880
 C         4.248351        -0.422955         2.238070
 O         2.838433        -0.102156         2.299099
 C         2.270582        -0.697350         1.115634
 H        -0.682774         0.586110         0.809881
 H        -0.559357         0.069421        -0.875205
 H        -0.214079        -1.138180         0.357199
 H         2.296350         1.867151        -0.828880
 H         2.406102         1.958829         1.048336
 H         2.620278        -0.180162        -1.967842
 H         2.299056        -1.827175        -0.948797
 H         4.613331        -1.496715         2.424771
 H         4.828029         0.404330         2.683853
 H         2.158175        -1.777133         1.295446
