19
Iteration:  1631
 C        -0.150770         0.067609         0.004969
 C         1.310503        -0.079122         0.066668
 C         2.277840         1.170201         0.094827
 C         3.260851        -0.154911         0.176239
 C         2.346476        -0.763378        -0.948623
 O         4.604563        -0.302825         0.593888
 C         4.327115        -0.143409         2.176822
 O         2.853353        -0.265995         2.393143
 C         2.325645        -0.752456         1.077485
 H        -0.597849         0.575255         0.872289
 H        -0.335453         0.647945        -0.901158
 H        -0.626627        -0.914381         0.062657
 H         2.233630         1.677731        -0.849774
 H         2.204730         1.825710         1.009429
 H         2.334365        -0.348758        -1.951763
 H         2.264789        -1.857969        -0.977039
 H         4.841188        -1.030962         2.589196
 H         4.640913         0.944146         2.433627
 H         2.259760        -1.899425         1.351252
