19
Iteration:  4711charge 0 multiplicity 1
 C        -0.087458         0.023677         0.038499
 C         1.343980        -0.053212         0.083553
 C         2.439229         1.101315         0.064933
 C         3.220348        -0.223224         0.115061
 C         2.291690        -0.728508        -1.036594
 O         4.563780        -0.157795         0.730051
 C         4.166391        -0.017279         2.173463
 O         2.868486        -0.412662         2.347591
 C         2.317931        -0.822392         1.135418
 H        -0.439174         0.819318         0.760562
 H        -0.387055         0.173810        -0.940205
 H        -0.595675        -0.967900         0.134081
 H         2.653156         1.692277        -0.968435
 H         2.377239         1.734859         1.026975
 H         2.576549         0.017234        -1.917052
 H         1.978184        -1.777415        -1.170809
 H         4.909714        -0.497043         2.756757
 H         4.300249         1.084893         2.343143
 H         2.319541        -1.870224         1.057842
