19
Iteration:  4912charge 0 multiplicity 1
 C        -0.194626        -0.100051         0.043560
 C         1.357419        -0.049844         0.014141
 C         2.317270         1.158123        -0.019164
 C         3.212976        -0.077548         0.150605
 C         2.387773        -0.725857        -0.998063
 O         4.551136        -0.129140         0.748062
 C         4.304001        -0.399419         2.156772
 O         2.877768        -0.203781         2.411074
 C         2.302538        -0.663193         1.127592
 H        -0.696072         0.622384         0.713140
 H        -0.562286         0.294755        -0.939225
 H        -0.410153        -1.129650         0.067000
 H         2.419320         1.607487        -1.044121
 H         2.313392         2.078512         0.720429
 H         2.374581        -0.221221        -1.959088
 H         2.592157        -1.955090        -1.024268
 H         4.594041        -1.452749         2.339806
 H         4.866166         0.199990         2.888967
 H         2.311638        -1.758719         1.205021
