19
Iteration:   115
 C        -0.135274         0.091602         0.095133
 C         1.396363        -0.091318         0.032855
 C         2.250552         1.093573         0.122729
 C         3.274002        -0.119974         0.106042
 C         2.360799        -0.791597        -0.962783
 O         4.562779        -0.121761         0.655528
 C         4.210828        -0.221896         2.083769
 O         2.809398        -0.293478         2.390269
 C         2.431787        -0.802685         1.101176
 H        -0.366965         0.882788         0.783977
 H        -0.449378         0.571229        -0.954464
 H        -0.745036        -0.742178         0.476529
 H         2.185293         1.819969        -0.735595
 H         2.184664         1.752113         0.994469
 H         2.438843        -0.457389        -2.001246
 H         2.272281        -1.920666        -1.010303
 H         4.736119        -1.212798         2.343642
 H         4.774452         0.592889         2.587752
 H         2.461048        -1.878217         1.048902
