19
Iteration:   194charge 0 multiplicity 1
 C        -0.081584        -0.040689        -0.029259
 C         1.399964        -0.009458         0.163710
 C         2.356531         1.239918         0.162014
 C         3.223483        -0.150988         0.170041
 C         2.317529        -0.682143        -0.937861
 O         4.499253        -0.374568         0.638374
 C         4.231616         0.006159         2.024098
 O         2.898436        -0.386134         2.376409
 C         2.297358        -0.832967         1.133858
 H        -0.639518         0.116143         0.951896
 H        -0.393095         0.757728        -0.686014
 H        -0.379347        -0.850127        -0.649236
 H         2.419199         1.752150        -0.758993
 H         2.384036         1.807255         1.008818
 H         2.556220        -0.310720        -1.863909
 H         2.031307        -1.718595        -0.808276
 H         5.171272        -0.284574         2.651593
 H         4.120700         1.090420         1.936507
 H         2.341772        -1.902613         0.960463
