19
Iteration:  4042
 C        -0.067136        -0.171419         0.051856
 C         1.388605        -0.044369         0.020833
 C         2.390360         1.156493         0.048893
 C         3.257992        -0.120660         0.130652
 C         2.394182        -0.756747        -0.973863
 O         4.548455        -0.065352         0.703826
 C         4.178520        -0.415123         2.164467
 O         2.818057        -0.100190         2.284362
 C         2.267465        -0.701089         1.178480
 H        -0.340935         0.138875         1.058259
 H        -0.632639         0.622237        -0.487109
 H        -0.595433        -1.183752        -0.047965
 H         2.466986         1.764933        -0.850394
 H         2.382399         1.760722         0.976844
 H         2.491259        -0.226625        -2.034801
 H         2.352656        -1.941918        -0.922815
 H         4.474420        -1.509810         2.212161
 H         4.592232         0.337196         2.837333
 H         2.140881        -1.807922         1.201396
