19
Iteration:  1662charge 0 multiplicity 1
 C        -0.113885         0.063696        -0.054192
 C         1.301325        -0.125301         0.121841
 C         2.362970         1.109863         0.101283
 C         3.209057        -0.172198         0.196075
 C         2.339970        -0.800436        -0.978341
 O         4.541467        -0.083590         0.584298
 C         4.356932        -0.326920         2.084218
 O         2.837072        -0.163427         2.416657
 C         2.306704        -0.760366         1.203274
 H        -0.558212         0.594805         0.747741
 H        -0.438994         0.672054        -0.915098
 H        -0.507832        -0.982659        -0.245196
 H         2.270005         1.691102        -0.890901
 H         2.431156         1.859149         0.963771
 H         2.302169        -0.324121        -1.954745
 H         2.281287        -1.919496        -0.893723
 H         4.725899        -1.365900         2.326259
 H         5.031895         0.360335         2.712492
 H         2.162584        -1.829602         1.260001
