19
Iteration:   446charge 0 multiplicity 1
 C        -0.162225        -0.006462         0.166396
 C         1.389792        -0.023239         0.061425
 C         2.402992         1.076321         0.158278
 C         3.246963        -0.271827         0.130307
 C         2.445815        -0.694955        -1.096705
 O         4.559273        -0.298078         0.636143
 C         4.295101         0.022198         2.012853
 O         2.767634        -0.291780         2.387232
 C         2.273571        -0.786744         1.160641
 H        -0.572910         0.767083         0.934312
 H        -0.570319         0.285407        -0.741975
 H        -0.612110        -0.985305         0.283103
 H         2.475448         1.783087        -0.654895
 H         2.373262         1.608750         1.164747
 H         2.387065        -0.061434        -1.990001
 H         2.111730        -1.722601        -1.358538
 H         4.942588        -0.574640         2.589833
 H         4.347192         1.047330         2.332498
 H         2.101165        -1.845978         1.160389
