19
Iteration:  3371charge 0 multiplicity 1
 C        -0.099068        -0.157539         0.007611
 C         1.354682        -0.017095         0.047975
 C         2.341206         1.116520         0.085162
 C         3.254093        -0.089294         0.130059
 C         2.326091        -0.709676        -0.953662
 O         4.543744        -0.151050         0.680141
 C         4.233722        -0.380498         2.147758
 O         2.867902        -0.114682         2.370387
 C         2.297643        -0.657825         1.117975
 H        -0.556180         0.071982         1.049956
 H        -0.417967         0.360622        -0.932054
 H        -0.288414        -1.336997        -0.019924
 H         2.430483         1.754988        -0.811549
 H         2.544719         1.835606         0.887501
 H         2.342235        -0.446058        -2.057318
 H         2.346714        -1.785334        -0.899298
 H         4.322401        -1.425285         2.489744
 H         4.726792         0.373916         2.758344
 H         2.375492        -1.736012         0.946028
