19
Iteration:  3485
 C        -0.110607        -0.005745        -0.033868
 C         1.402850        -0.076936         0.073854
 C         2.326517         1.103781         0.123648
 C         3.285795        -0.167052         0.174161
 C         2.364826        -0.685579        -1.002704
 O         4.499704        -0.272774         0.663916
 C         4.326081        -0.028010         2.146326
 O         2.818295        -0.297785         2.358228
 C         2.263736        -0.779289         1.164671
 H        -0.710716         0.106389         0.877472
 H        -0.506614         0.564041        -0.877242
 H        -0.508079        -1.067392        -0.185594
 H         2.261412         1.787636        -0.748025
 H         2.313110         1.698585         1.072314
 H         2.446912        -0.107402        -1.910581
 H         2.406779        -1.838549        -1.227046
 H         4.918513        -0.801300         2.590100
 H         4.717395         0.927309         2.172085
 H         2.176778        -1.820658         1.345281
