19
Iteration:  3348
 C        -0.191066        -0.103356        -0.016913
 C         1.398494        -0.069616         0.065937
 C         2.305993         1.167985         0.011292
 C         3.300819        -0.124370         0.114392
 C         2.422814        -0.722649        -0.945559
 O         4.523095        -0.154947         0.692964
 C         4.334078        -0.327877         2.062820
 O         2.829408        -0.168409         2.382668
 C         2.244105        -0.732223         1.273146
 H        -0.664917         0.031909         1.078503
 H        -0.291262         0.700614        -0.810736
 H        -0.502994        -1.135670        -0.402359
 H         2.192672         1.786852        -0.878740
 H         2.310659         1.923089         0.823796
 H         2.641651        -0.141004        -1.871265
 H         2.252494        -1.739575        -1.245425
 H         4.516561        -1.335367         2.434287
 H         4.656937         0.518562         2.751842
 H         2.379845        -1.828299         1.344684
