19
Iteration:  2381charge 0 multiplicity 1
 C        -0.175214        -0.028364        -0.027101
 C         1.353480        -0.053994         0.132663
 C         2.354844         1.131604         0.129268
 C         3.248722        -0.176523         0.079421
 C         2.341645        -0.787948        -0.984261
 O         4.531126        -0.177466         0.687598
 C         4.300276        -0.171341         2.179086
 O         2.885780        -0.194893         2.295833
 C         2.307206        -0.782331         1.143087
 H        -0.535514         0.664993         0.662521
 H        -0.429688         0.347306        -1.001954
 H        -0.721250        -0.946747         0.252614
 H         2.665550         1.796827        -0.712070
 H         2.293961         1.671168         1.138064
 H         2.209388        -0.292943        -1.905162
 H         2.088012        -1.839375        -1.051377
 H         4.691549        -1.141480         2.430006
 H         5.001147         0.624327         2.585054
 H         2.210471        -1.840041         1.253163
