19
Iteration:  1312
 C        -0.083186        -0.130250         0.044084
 C         1.373867         0.014587         0.105578
 C         2.420104         1.232592         0.233316
 C         3.207688        -0.151824         0.161375
 C         2.361156        -0.629964        -0.992586
 O         4.452775        -0.397253         0.625280
 C         4.312515        -0.128728         2.039422
 O         2.891025        -0.269728         2.302657
 C         2.220237        -0.736334         1.137526
 H        -0.621465         0.357609         0.850235
 H        -0.535304         0.279272        -0.915359
 H        -0.314413        -1.297458        -0.074279
 H         2.540804         1.954542        -0.553310
 H         2.516332         1.746681         1.145027
 H         2.433643        -0.015449        -1.909978
 H         2.008690        -1.742234        -1.101676
 H         4.915112        -0.809683         2.657716
 H         4.657000         0.953384         2.290053
 H         2.063413        -1.745219         1.231128
