19
Iteration:  4936
 C        -0.118685        -0.140875        -0.035536
 C         1.402549        -0.038502         0.039560
 C         2.262890         1.201507         0.052525
 C         3.232594        -0.107208         0.155951
 C         2.398844        -0.727313        -0.929526
 O         4.552875        -0.233266         0.682323
 C         4.235151        -0.385875         2.121924
 O         2.873604        -0.091391         2.382673
 C         2.298391        -0.695334         1.176985
 H        -0.501396         0.278065         0.829390
 H        -0.577973         0.570106        -0.778743
 H        -0.376380        -1.158109        -0.283417
 H         2.173320         1.826577        -0.849384
 H         2.403153         1.904649         0.971000
 H         2.436856        -0.069859        -1.870957
 H         2.223472        -1.896241        -1.180698
 H         4.587070        -1.397694         2.442823
 H         4.774820         0.301471         2.682195
 H         2.407804        -1.777730         1.231420
