19
Iteration:  4705
 C        -0.124971         0.009755         0.059938
 C         1.377603        -0.055883         0.088558
 C         2.464067         1.134859         0.057876
 C         3.249015        -0.193479         0.139953
 C         2.284991        -0.729144        -1.089907
 O         4.597235        -0.183926         0.698003
 C         4.205841        -0.005774         2.178124
 O         2.813593        -0.420304         2.382101
 C         2.291099        -0.800204         1.158003
 H        -0.616760         0.766109         0.661530
 H        -0.447274         0.091243        -1.075563
 H        -0.539603        -0.990432         0.181974
 H         2.482835         1.770630        -0.763435
 H         2.346225         1.809045         0.852943
 H         2.481938        -0.154609        -1.941538
 H         2.066676        -1.812804        -1.237420
 H         5.024329        -0.593323         2.793132
 H         4.310172         1.056467         2.356692
 H         2.262736        -1.946790         0.998424
