19
Iteration:  1899charge 0 multiplicity 1
 C        -0.158210         0.109518         0.099546
 C         1.365814        -0.120443         0.082351
 C         2.384835         1.161760         0.121118
 C         3.203959        -0.171476         0.148131
 C         2.452957        -0.729662        -1.025578
 O         4.486340        -0.296095         0.661934
 C         4.271527        -0.059844         2.012350
 O         2.871981        -0.330330         2.355460
 C         2.232892        -0.834717         1.197603
 H        -0.252107         0.887398         0.812866
 H        -0.512331         0.410175        -0.909453
 H        -0.648293        -0.851980         0.355659
 H         2.522350         1.690461        -0.790704
 H         2.521896         1.883625         0.854214
 H         2.537059        -0.214801        -1.980155
 H         2.438215        -1.820088        -1.200489
 H         4.936623        -0.659720         2.728995
 H         4.396643         1.036291         2.209930
 H         2.191624        -1.954007         1.229195
