19
Iteration:  3600
 C        -0.142134         0.040727        -0.022791
 C         1.366183        -0.072532         0.110698
 C         2.324547         1.066442         0.085136
 C         3.226535        -0.136954         0.111572
 C         2.429848        -0.740336        -1.014430
 O         4.552017        -0.159374         0.682831
 C         4.301866        -0.066383         2.064740
 O         2.775506        -0.379858         2.447206
 C         2.323318        -0.810420         1.162641
 H        -0.506225         0.785730         0.689125
 H        -0.271360         0.115926        -1.092055
 H        -0.606683        -0.760312         0.381588
 H         2.540808         1.778235        -0.711019
 H         2.300434         1.702439         0.966467
 H         2.447367        -0.139536        -1.954046
 H         2.293424        -1.789891        -1.194783
 H         4.760543        -0.795957         2.732247
 H         4.331888         0.971740         2.318158
 H         2.420107        -1.956237         1.030256
