19
Iteration:  3216charge 0 multiplicity 1
 C        -0.058206        -0.026196         0.027188
 C         1.352536        -0.054974         0.064568
 C         2.419139         1.115606         0.129274
 C         3.240869        -0.228970         0.134834
 C         2.329792        -0.644364        -1.031240
 O         4.604059        -0.241404         0.694926
 C         4.238136         0.018075         2.105567
 O         2.796072        -0.313920         2.366109
 C         2.267816        -0.902747         1.193073
 H        -0.713441         0.611575         0.762899
 H        -0.532219         0.378953        -0.932570
 H        -0.405015        -1.052714         0.078969
 H         2.395656         1.737186        -0.747511
 H         2.314276         1.671178         1.064533
 H         2.412769        -0.086776        -1.954348
 H         2.211939        -1.700184        -1.404212
 H         4.902052        -0.495562         2.756097
 H         4.342506         1.107619         2.141131
 H         2.106868        -1.954683         0.998392
