19
Iteration:  1889charge 0 multiplicity 1
 C        -0.067773         0.034232         0.095688
 C         1.324250        -0.064633         0.044513
 C         2.419658         1.121409         0.155358
 C         3.187388        -0.152438         0.174779
 C         2.358569        -0.734289        -1.092699
 O         4.483075        -0.379729         0.615778
 C         4.329722         0.004231         2.062682
 O         2.796021        -0.305805         2.447958
 C         2.297264        -0.772454         1.113501
 H        -0.444096         0.777481         0.738869
 H        -0.391723         0.480305        -0.863683
 H        -0.687466        -0.838027         0.412854
 H         2.489711         1.686499        -0.717923
 H         2.438637         1.576097         1.152596
 H         2.535332        -0.073961        -1.951549
 H         2.512610        -1.813637        -1.259304
 H         5.043611        -0.560933         2.692444
 H         4.551434         1.078224         2.075362
 H         2.205571        -1.930700         1.268345
