19
Iteration:  3778charge 0 multiplicity 1
 C        -0.068931        -0.143679        -0.021048
 C         1.418803        -0.051485         0.163707
 C         2.357287         1.201988         0.083364
 C         3.246046        -0.045034         0.179545
 C         2.333111        -0.715936        -1.011773
 O         4.550413        -0.249746         0.690986
 C         4.290065        -0.238424         2.108839
 O         2.791821        -0.225788         2.345466
 C         2.295720        -0.685971         1.100080
 H        -0.752356         0.575097         0.497356
 H        -0.471609        -0.099003        -1.157043
 H        -0.413462        -1.186291         0.308096
 H         2.416483         1.748730        -0.850494
 H         2.235959         1.716054         1.016410
 H         2.336888        -0.204926        -1.993799
 H         2.326547        -1.851636        -1.037482
 H         4.517985        -1.204811         2.592203
 H         4.651561         0.661700         2.699590
 H         2.129053        -1.741434         1.323643
