19
Iteration:  1409
 C        -0.151120         0.047785         0.155578
 C         1.413643        -0.032845         0.088603
 C         2.375188         1.141716         0.010069
 C         3.204774        -0.146886         0.110483
 C         2.377723        -0.808680        -1.015719
 O         4.484270        -0.026140         0.755711
 C         4.330722        -0.425408         2.094723
 O         2.831575        -0.188697         2.285521
 C         2.326189        -0.784170         1.124274
 H        -0.437908         0.687568         0.947811
 H        -0.681678         0.324089        -0.765504
 H        -0.612490        -1.002448         0.273145
 H         2.282497         1.583071        -0.961030
 H         2.574903         1.777756         0.820044
 H         2.296313        -0.250977        -1.925568
 H         2.247115        -1.866061        -1.086118
 H         4.630650        -1.374595         2.484982
 H         4.846970         0.257912         2.810005
 H         2.189755        -1.929293         1.138368
