19
Iteration:  1605
 C        -0.129967        -0.030866         0.098895
 C         1.371332        -0.019009         0.108668
 C         2.536696         1.179449         0.116679
 C         3.246610        -0.248842         0.151356
 C         2.294109        -0.710264        -1.046997
 O         4.485096        -0.309558         0.700205
 C         4.265117        -0.020893         2.051826
 O         2.829428        -0.305037         2.362502
 C         2.285038        -0.784415         1.093706
 H        -0.533070         0.481118         0.942754
 H        -0.442773         0.417824        -0.863327
 H        -0.548337        -1.064215         0.262921
 H         2.655762         1.850586        -0.847180
 H         2.406237         1.721866         1.041088
 H         2.392589        -0.141437        -1.997730
 H         2.144482        -1.798948        -1.312159
 H         4.971321        -0.656844         2.631533
 H         4.337146         1.053051         2.196072
 H         2.071270        -1.762890         1.268352
