19
Iteration:  1429charge 0 multiplicity 1
 C        -0.106434        -0.089251         0.128540
 C         1.403981        -0.105654         0.112437
 C         2.405965         1.157965         0.025287
 C         3.309818        -0.073426         0.105535
 C         2.221481        -0.722026        -1.042556
 O         4.618955        -0.176703         0.645335
 C         4.159656        -0.345504         2.126568
 O         2.809474        -0.151250         2.387756
 C         2.337201        -0.692557         1.110841
 H        -0.386177         0.724509         0.781530
 H        -0.533431         0.163690        -0.810615
 H        -0.464014        -1.035051         0.401697
 H         2.584617         1.819680        -0.851749
 H         2.307909         1.781334         0.984829
 H         2.117067        -0.151679        -1.976346
 H         2.203185        -1.759183        -1.008014
 H         4.283714        -1.449921         2.283702
 H         4.837546         0.126244         2.858973
 H         2.331850        -1.861895         1.217545
