19
Iteration:  1658
 C        -0.095382         0.069159        -0.059844
 C         1.299491        -0.119909         0.106632
 C         2.345825         1.124698         0.098950
 C         3.166715        -0.143384         0.165313
 C         2.358811        -0.805582        -0.984112
 O         4.511992        -0.118914         0.639860
 C         4.364504        -0.302123         2.072532
 O         2.866109        -0.186426         2.385318
 C         2.318140        -0.759255         1.227082
 H        -0.572753         0.593093         0.810494
 H        -0.354197         0.735169        -0.916483
 H        -0.503240        -0.969875        -0.155507
 H         2.229044         1.685305        -0.884645
 H         2.499649         1.729174         0.958363
 H         2.218192        -0.324130        -1.975245
 H         2.321678        -1.910073        -0.880703
 H         4.685893        -1.308676         2.340237
 H         4.902699         0.397751         2.615607
 H         2.339145        -1.843160         1.381266
