19
Iteration:   702
 C        -0.186379        -0.054411         0.016591
 C         1.294943        -0.111727         0.110856
 C         2.363274         1.142366         0.114019
 C         3.245338        -0.111198         0.213658
 C         2.268510        -0.668958        -1.005465
 O         4.551276        -0.246688         0.641137
 C         4.324307        -0.210831         2.088819
 O         2.895585        -0.217057         2.345846
 C         2.344592        -0.749428         1.174603
 H        -0.512041         0.353261         0.904164
 H        -0.399409         0.640408        -0.794552
 H        -0.583555        -1.040281        -0.260929
 H         2.466553         1.705510        -0.811135
 H         2.175289         1.929393         0.816406
 H         2.435866        -0.130092        -2.041587
 H         2.264370        -1.811361        -1.066593
 H         4.797385        -1.102495         2.475854
 H         4.913493         0.581007         2.494916
 H         2.350248        -1.878431         1.152032
