19
Iteration:  3320
 C        -0.157233         0.007926        -0.041349
 C         1.382891        -0.101259         0.011542
 C         2.312656         1.189477         0.154718
 C         3.315620        -0.113497         0.109312
 C         2.344366        -0.829150        -0.950570
 O         4.517358        -0.118417         0.636194
 C         4.252436        -0.203389         2.200864
 O         2.899358        -0.199666         2.372957
 C         2.294154        -0.854299         1.157608
 H        -0.608794         0.180446         0.835078
 H        -0.325038         0.734948        -0.769198
 H        -0.654749        -0.918898        -0.414080
 H         2.385543         1.830782        -0.774975
 H         2.111467         1.723349         1.104640
 H         2.402401        -0.417201        -2.005549
 H         2.310214        -1.939727        -1.053975
 H         4.788053        -1.161862         2.479494
 H         4.629105         0.622022         2.724201
 H         2.272405        -2.050763         1.236583
