19
Iteration:  2519
 C        -0.109448         0.011719        -0.034025
 C         1.349699        -0.013541         0.013170
 C         2.313494         1.153050         0.117880
 C         3.239706        -0.194008         0.150795
 C         2.284645        -0.785696        -0.993575
 O         4.474884        -0.213143         0.695437
 C         4.336260        -0.164795         2.107331
 O         2.886954        -0.247615         2.398107
 C         2.384706        -0.764341         1.169221
 H        -0.471036         0.355477         0.923995
 H        -0.507700         0.604547        -0.926207
 H        -0.566335        -1.034367        -0.012662
 H         2.384822         1.794343        -0.785291
 H         2.288647         1.689261         1.099167
 H         2.326742        -0.243168        -2.034988
 H         2.339927        -1.911347        -1.184275
 H         4.710366        -1.022955         2.781652
 H         4.654477         0.808604         2.420070
 H         2.376301        -1.919223         1.067757
