19
Iteration:  4692charge 0 multiplicity 1
 C        -0.164284        -0.058976         0.008117
 C         1.398182         0.001134         0.060688
 C         2.392427         1.176922         0.101278
 C         3.306839        -0.131214         0.122917
 C         2.335442        -0.711024        -1.020871
 O         4.573118        -0.259067         0.718226
 C         4.265283        -0.011355         2.076330
 O         2.766746        -0.394070         2.449338
 C         2.318593        -0.801237         1.077370
 H        -0.544339         0.749074         0.724137
 H        -0.589964         0.137034        -1.027684
 H        -0.496219        -0.983509         0.431964
 H         2.492828         1.631469        -0.937868
 H         2.514176         1.686657         1.009473
 H         2.101283        -0.198626        -2.029163
 H         2.458869        -1.845313        -1.047346
 H         4.869922        -0.783350         2.727294
 H         4.390461         0.999449         2.408378
 H         2.051438        -1.861746         1.165887
