19
Iteration:  3025
 C        -0.070211        -0.019999        -0.029032
 C         1.398155        -0.123252         0.100678
 C         2.273669         1.167675         0.073108
 C         3.239711        -0.121294         0.137820
 C         2.410705        -0.788611        -0.962488
 O         4.569025        -0.045842         0.673414
 C         4.276049        -0.326893         2.118249
 O         2.862475        -0.216815         2.400905
 C         2.240650        -0.794512         1.141171
 H        -0.648340         0.654647         0.721416
 H        -0.393640         0.610710        -0.869269
 H        -0.910795        -0.821433        -0.223589
 H         2.268498         1.734813        -0.850506
 H         2.206487         1.677586         1.003524
 H         2.398090        -0.474807        -2.062099
 H         2.436351        -1.811900        -0.985163
 H         4.623122        -1.297751         2.385885
 H         4.796804         0.490079         2.606217
 H         2.015337        -1.814930         1.347551
