19
Iteration:   176
 C        -0.127888        -0.068487        -0.010451
 C         1.359482         0.048980         0.071296
 C         2.415218         1.157888         0.167635
 C         3.211665        -0.161719         0.140807
 C         2.356472        -0.684169        -1.022451
 O         4.499466        -0.434084         0.695866
 C         4.263933         0.126541         1.999097
 O         2.940146        -0.456727         2.405642
 C         2.259974        -0.723212         1.176576
 H        -0.549662         0.130216         1.081926
 H        -0.611062         0.638944        -0.630204
 H        -0.385391        -1.095954        -0.422623
 H         2.482890         1.830193        -0.683178
 H         2.344016         1.771285         1.153244
 H         2.194366        -0.022554        -1.964960
 H         2.414973        -1.716194        -1.295826
 H         4.865484        -0.410378         2.657866
 H         4.309446         1.223096         2.136886
 H         1.954030        -1.804245         1.288395
