19
Iteration:   801
 C        -0.141634         0.079441         0.049843
 C         1.340400        -0.077349         0.053009
 C         2.345556         1.084032         0.108849
 C         3.199786        -0.119575         0.167270
 C         2.280676        -0.810276        -0.940389
 O         4.540478         0.058081         0.653968
 C         4.298442        -0.358649         2.050804
 O         2.915606        -0.307168         2.355560
 C         2.349629        -0.779807         1.175293
 H        -0.393983         0.761165         0.789078
 H        -0.443026         0.394855        -0.956566
 H        -0.627340        -0.865001         0.202365
 H         2.483792         1.529915        -0.847796
 H         2.146884         1.850537         0.880231
 H         2.424913        -0.321370        -1.916545
 H         2.360253        -1.951593        -1.015972
 H         4.744344        -1.337157         2.022757
 H         4.698042         0.327237         2.772682
 H         2.150230        -1.951338         1.157229
