19
Iteration:  1149
 C        -0.159613        -0.144987         0.041265
 C         1.390551         0.085548         0.209191
 C         2.376523         1.199037         0.209777
 C         3.252251        -0.156801         0.126572
 C         2.267755        -0.602028        -1.028575
 O         4.615948        -0.334566         0.601621
 C         4.247798        -0.206803         2.057021
 O         2.860812        -0.250789         2.335248
 C         2.302318        -0.758619         1.147627
 H        -0.754968         0.324334         0.702420
 H        -0.470434         0.253553        -0.901212
 H        -0.335774        -1.232187        -0.048776
 H         2.391230         1.799294        -0.685146
 H         2.379922         1.745421         1.178597
 H         2.361580        -0.042743        -1.948564
 H         2.168825        -1.669918        -1.239391
 H         4.688123        -1.003403         2.635093
 H         4.669467         0.771128         2.290957
 H         2.061582        -1.907516         1.086718
