19
Iteration:  4673charge 0 multiplicity 1
 C        -0.119882        -0.086977         0.025523
 C         1.412255        -0.039396         0.042142
 C         2.356582         1.216679         0.137816
 C         3.235819        -0.101728         0.211501
 C         2.403092        -0.718058        -1.003499
 O         4.498209        -0.341293         0.663721
 C         4.238028        -0.094636         2.118406
 O         2.855616        -0.293685         2.307572
 C         2.282345        -0.725416         1.134991
 H        -0.659266         0.596242         0.639378
 H        -0.413772         0.221884        -1.037777
 H        -0.407632        -1.047665         0.419254
 H         2.352245         1.838036        -0.678354
 H         2.203111         1.696939         1.080173
 H         2.645702        -0.341048        -1.896174
 H         2.309803        -1.791298        -1.106399
 H         4.811346        -0.831575         2.763526
 H         4.355330         0.950575         2.408356
 H         2.357180        -1.884956         1.076197
