19
Iteration:  3344
 C        -0.175915        -0.081350        -0.025000
 C         1.367445        -0.085689         0.068074
 C         2.294421         1.128739         0.024472
 C         3.264824        -0.131489         0.130755
 C         2.439286        -0.704541        -0.963784
 O         4.534676        -0.151194         0.702099
 C         4.326158        -0.314525         2.058233
 O         2.838084        -0.169124         2.394930
 C         2.259989        -0.709072         1.269728
 H        -0.623097        -0.006587         0.940476
 H        -0.358787         0.696505        -0.765420
 H        -0.544728        -0.986442        -0.362113
 H         2.190393         1.688083        -0.919731
 H         2.411076         1.801728         0.882045
 H         2.600109        -0.209200        -1.889711
 H         2.313066        -1.799093        -1.189797
 H         4.585134        -1.320064         2.462561
 H         4.725295         0.560141         2.678141
 H         2.336717        -1.861144         1.079942
