19
Iteration:   540
 C        -0.123161        -0.079868         0.015604
 C         1.338791        -0.080151         0.149848
 C         2.309474         1.139634         0.052057
 C         3.293279        -0.041040         0.049652
 C         2.384128        -0.835022        -0.903901
 O         4.543709        -0.036273         0.628241
 C         4.211779        -0.485255         2.046477
 O         2.929909        -0.150384         2.397432
 C         2.284095        -0.615410         1.196933
 H        -0.631659         0.372412         0.845565
 H        -0.478112         0.551301        -0.944873
 H        -0.560997        -1.074480        -0.267800
 H         2.236063         1.810656        -0.840928
 H         2.364211         1.781242         0.906715
 H         2.131922        -0.455868        -1.850597
 H         2.295397        -1.903805        -0.708322
 H         4.431442        -1.638308         2.111249
 H         4.914110        -0.147845         2.846346
 H         2.259166        -1.671132         1.425099
