19
Iteration:  4811charge 0 multiplicity 1
 C        -0.098467        -0.124319        -0.031165
 C         1.349282         0.032635         0.105810
 C         2.413509         1.214405         0.159375
 C         3.212198        -0.115998         0.184218
 C         2.353246        -0.731108        -0.971530
 O         4.563815        -0.293380         0.632216
 C         4.233588        -0.104895         2.150855
 O         2.837199        -0.274605         2.350315
 C         2.244058        -0.766979         1.099336
 H        -0.702339         0.076000         0.889565
 H        -0.389665         0.532598        -0.760937
 H        -0.312782        -1.139972        -0.200645
 H         2.648391         1.730110        -0.826931
 H         2.542953         1.716659         1.079633
 H         2.369348        -0.496262        -2.044795
 H         2.326562        -1.839881        -1.043024
 H         4.798554        -0.814620         2.643216
 H         4.545700         0.942872         2.301645
 H         2.179731        -1.806958         1.094349
