19
Iteration:  1406
 C        -0.165501         0.052186         0.144215
 C         1.409441        -0.018859         0.100710
 C         2.351007         1.118759        -0.002816
 C         3.211331        -0.151244         0.117565
 C         2.410110        -0.823900        -1.028498
 O         4.494664        -0.012784         0.742929
 C         4.319386        -0.395115         2.109853
 O         2.861647        -0.213956         2.283491
 C         2.288493        -0.796243         1.129899
 H        -0.448626         0.724062         0.984672
 H        -0.691392         0.430203        -0.701312
 H        -0.489145        -0.913953         0.276589
 H         2.339641         1.645728        -0.996683
 H         2.547566         1.851900         0.894432
 H         2.263130        -0.245461        -1.953683
 H         2.278372        -1.873345        -0.989900
 H         4.596728        -1.452913         2.426841
 H         4.839535         0.246379         2.821412
 H         2.087776        -1.945957         1.174127
