19
Iteration:  4938
 C        -0.120423        -0.132554        -0.033547
 C         1.406554        -0.035886         0.033222
 C         2.267803         1.200653         0.076524
 C         3.225792        -0.122871         0.153652
 C         2.396586        -0.737294        -0.921949
 O         4.556644        -0.235032         0.667231
 C         4.235216        -0.368674         2.111198
 O         2.859487        -0.093971         2.385295
 C         2.304845        -0.686178         1.165343
 H        -0.510132         0.268760         0.833689
 H        -0.567838         0.540555        -0.772622
 H        -0.331465        -1.178905        -0.344487
 H         2.170287         1.814415        -0.818658
 H         2.429011         1.844525         0.927438
 H         2.441973        -0.033993        -1.834508
 H         2.246953        -1.842484        -1.115290
 H         4.545557        -1.398737         2.453564
 H         4.772379         0.278934         2.748805
 H         2.463006        -1.771488         1.283130
