19
Iteration:  4783
 C        -0.118486        -0.083565        -0.029533
 C         1.345711        -0.022922         0.093739
 C         2.410363         1.126909         0.130046
 C         3.220387        -0.232574         0.161988
 C         2.295131        -0.655461        -1.083901
 O         4.559055        -0.292570         0.746826
 C         4.255072         0.020567         2.071218
 O         2.835765        -0.292883         2.402134
 C         2.318832        -0.795178         1.163978
 H        -0.600996        -0.016305         0.932430
 H        -0.403118         0.871315        -0.715011
 H        -0.569030        -1.042499        -0.484287
 H         2.606563         1.669375        -0.765308
 H         2.635665         1.628210         1.112791
 H         2.346526        -0.050703        -1.992129
 H         2.187387        -1.768948        -1.320575
 H         5.009289        -0.686766         2.704322
 H         4.485640         1.087871         2.206933
 H         2.173308        -1.966018         1.067587
