19
Iteration:  3538charge 0 multiplicity 1
 C        -0.058986        -0.074327         0.034489
 C         1.409420        -0.037725         0.121466
 C         2.417630         1.119088         0.124908
 C         3.253119        -0.217630         0.177292
 C         2.348752        -0.648210        -1.041610
 O         4.557461        -0.262568         0.691319
 C         4.123344         0.026704         2.060526
 O         2.821393        -0.327615         2.331175
 C         2.273426        -0.837763         1.176337
 H        -0.506533         0.173380         1.012723
 H        -0.478764         0.787705        -0.493261
 H        -0.496304        -1.078184        -0.510007
 H         2.645468         1.695765        -0.789641
 H         2.471500         1.800626         1.000319
 H         2.521687        -0.221378        -2.009710
 H         2.129845        -1.746329        -1.278390
 H         4.881520        -0.464232         2.721971
 H         4.324980         1.138446         2.111320
 H         2.158288        -1.955832         1.250631
