19
Iteration:  1979charge 0 multiplicity 1
 C        -0.228055        -0.030053         0.085354
 C         1.338917        -0.045371         0.094597
 C         2.341278         1.210599         0.104724
 C         3.306567        -0.115881         0.109734
 C         2.448708        -0.826506        -1.003993
 O         4.561739        -0.252075         0.634210
 C         4.290105        -0.313789         2.078882
 O         2.821886        -0.098792         2.333559
 C         2.274140        -0.711619         1.189434
 H        -0.586817         0.296839         1.086177
 H        -0.541684         0.603181        -0.715599
 H        -0.653955        -1.016859        -0.070590
 H         2.385512         1.860684        -0.738266
 H         2.281200         1.688545         1.112545
 H         2.403942        -0.367702        -2.030145
 H         2.716094        -1.891160        -0.957121
 H         4.388262        -1.440796         2.354184
 H         4.990057         0.405115         2.564526
 H         2.134296        -1.867206         1.215485
