19
Iteration:  4375
 C        -0.141672        -0.079206         0.042491
 C         1.388059        -0.037680         0.026374
 C         2.406493         1.088252         0.078609
 C         3.244172        -0.209330         0.143273
 C         2.259498        -0.703821        -1.085176
 O         4.577499        -0.221037         0.748624
 C         4.292458        -0.073090         2.146582
 O         2.796981        -0.263793         2.374696
 C         2.328610        -0.755737         1.099241
 H        -0.578384         0.349642         1.022004
 H        -0.344441         0.631507        -0.748844
 H        -0.457796        -1.132369        -0.057732
 H         2.515694         1.735441        -0.752666
 H         2.408023         1.771930         0.955552
 H         2.549780        -0.181153        -2.080845
 H         2.216865        -1.859015        -1.167192
 H         4.729373        -0.744929         2.933462
 H         4.433262         0.941179         2.519664
 H         2.118697        -1.854030         1.199340
