19
Iteration:  4439charge 0 multiplicity 1
 C        -0.076002         0.107788        -0.056249
 C         1.354177        -0.153413         0.046785
 C         2.387135         1.083167         0.178447
 C         3.239388        -0.270367         0.093319
 C         2.287870        -0.724808        -1.097252
 O         4.557972        -0.247622         0.715303
 C         4.128044         0.087334         2.092799
 O         2.905774        -0.338324         2.432580
 C         2.354862        -0.868931         1.200205
 H        -0.651544         0.343460         0.989507
 H        -0.294404         1.016747        -0.642432
 H        -0.770407        -0.786981        -0.320094
 H         2.438603         1.675285        -0.712901
 H         2.374865         1.711343         1.123640
 H         2.565781        -0.118549        -2.022970
 H         2.330537        -1.783525        -1.158839
 H         4.893471        -0.307528         2.814590
 H         4.280205         1.157816         1.977398
 H         2.224161        -2.018794         1.305580
