19
Iteration:  4062
 C        -0.171035        -0.142200         0.088807
 C         1.387309        -0.037860         0.026399
 C         2.334115         1.222175         0.007659
 C         3.282511        -0.082701         0.132655
 C         2.364971        -0.755686        -1.045172
 O         4.585913        -0.207484         0.741648
 C         4.199091        -0.340443         2.198025
 O         2.802482        -0.113398         2.428128
 C         2.353982        -0.696719         1.040617
 H        -0.628584         0.000607         0.974798
 H        -0.631683         0.480976        -0.719452
 H        -0.238277        -1.177196        -0.232662
 H         2.416995         1.766304        -0.948762
 H         2.256466         1.721665         0.984133
 H         2.292982        -0.331786        -2.056168
 H         2.326519        -1.908288        -0.985719
 H         4.522321        -1.371495         2.256369
 H         4.896356         0.458403         2.613097
 H         2.474948        -1.834805         1.228330
