19
Iteration:  4686charge 0 multiplicity 1
 C        -0.126396        -0.060388         0.003863
 C         1.347681        -0.002039         0.052358
 C         2.363178         1.169876         0.115493
 C         3.268392        -0.115812         0.079690
 C         2.393370        -0.695048        -0.955204
 O         4.548570        -0.291041         0.743427
 C         4.243756        -0.068707         2.061893
 O         2.789568        -0.357577         2.407133
 C         2.327041        -0.770062         1.081793
 H        -0.336998         0.709435         0.700756
 H        -0.680106        -0.063062        -0.955193
 H        -0.535532        -1.075261         0.301651
 H         2.583516         1.709458        -0.804772
 H         2.444524         1.776667         1.081397
 H         2.233061        -0.182201        -1.896645
 H         2.394226        -1.763606        -0.871451
 H         4.909763        -0.683297         2.613830
 H         4.544724         1.003730         2.302761
 H         2.141212        -1.895818         1.055134
