19
Iteration:   869charge 0 multiplicity 1
 C        -0.161059        -0.134192         0.091220
 C         1.357943         0.057029         0.122545
 C         2.360607         1.235437         0.215421
 C         3.230221        -0.209453         0.127375
 C         2.355077        -0.641857        -1.085757
 O         4.554260        -0.401156         0.657962
 C         4.310130        -0.063550         2.020817
 O         2.864461        -0.329813         2.346291
 C         2.270371        -0.688413         1.166656
 H        -0.680543        -0.021888         1.044869
 H        -0.714991         0.438398        -0.693007
 H        -0.254369        -1.089013        -0.250824
 H         2.605542         1.854611        -0.610395
 H         2.614030         1.835221         1.081101
 H         2.415754        -0.115115        -2.058572
 H         2.259421        -1.816619        -1.241048
 H         4.946686        -0.585036         2.712821
 H         4.398304         1.054668         2.022486
 H         1.946366        -1.869988         1.240078
