19
Iteration:  2098charge 0 multiplicity 1
 C        -0.102972         0.067748         0.075750
 C         1.393583        -0.040439         0.075696
 C         2.335624         1.077425         0.105971
 C         3.215657        -0.207083         0.149057
 C         2.284668        -0.777467        -1.043455
 O         4.553858        -0.189534         0.644944
 C         4.330244        -0.163484         2.154389
 O         2.853528        -0.208826         2.337314
 C         2.263009        -0.798215         1.128199
 H        -0.616260         0.654528         0.888159
 H        -0.401797         0.559444        -0.876901
 H        -0.588870        -0.956030         0.172041
 H         2.488924         1.540255        -0.843176
 H         2.305029         1.680012         1.032730
 H         2.417563        -0.222789        -2.019112
 H         2.245452        -1.876420        -1.068486
 H         4.745009        -1.039031         2.621884
 H         4.792190         0.696519         2.690730
 H         2.370309        -1.905999         1.149738
