19
Iteration:  3390
 C        -0.141764        -0.175110         0.030394
 C         1.398592        -0.048471         0.081611
 C         2.396664         1.269330         0.085108
 C         3.263513        -0.116605         0.127741
 C         2.357061        -0.786320        -1.005138
 O         4.554476        -0.138728         0.721792
 C         4.224922        -0.373576         2.107744
 O         2.803318        -0.106637         2.332541
 C         2.363840        -0.721184         1.132851
 H        -0.633059         0.357924         0.919894
 H        -0.592928         0.086052        -0.953244
 H        -0.515894        -1.098115         0.337740
 H         2.421010         1.957202        -0.758607
 H         2.246053         1.806997         1.047555
 H         2.280173        -0.323071        -1.975405
 H         2.297080        -1.878458        -1.107079
 H         4.462386        -1.458015         2.262111
 H         4.893338         0.366316         2.739855
 H         1.982408        -1.799084         1.107097
