19
Iteration:   667charge 0 multiplicity 1
 C        -0.090481         0.135735         0.026444
 C         1.365458        -0.054752         0.127790
 C         2.326930         1.142639         0.149662
 C         3.208489        -0.184472         0.202454
 C         2.357111        -0.820536        -0.954366
 O         4.551573        -0.184835         0.596535
 C         4.259580         0.044195         2.034823
 O         2.923100        -0.474764         2.354453
 C         2.272739        -0.814502         1.130534
 H        -0.551227         0.456598         0.911004
 H        -0.295547         0.839775        -0.687238
 H        -0.710489        -0.810056        -0.121839
 H         2.522331         1.744553        -0.808603
 H         2.284167         1.599760         1.112129
 H         2.331569        -0.597619        -2.128327
 H         2.146462        -1.888769        -0.872921
 H         4.855164        -0.638405         2.519659
 H         4.214915         1.091243         2.334595
 H         2.130303        -1.973371         1.130719
