19
Iteration:  4507charge 0 multiplicity 1
 C        -0.135779        -0.105011        -0.029716
 C         1.351452        -0.087683         0.029234
 C         2.343973         1.197097         0.058420
 C         3.211721        -0.094876         0.172959
 C         2.344460        -0.646209        -1.058001
 O         4.601592        -0.275444         0.755390
 C         4.334059        -0.196810         2.096218
 O         2.829625        -0.252132         2.385402
 C         2.259619        -0.703048         1.212595
 H        -0.600012         0.687600         0.686222
 H        -0.616331        -0.088408        -1.105010
 H        -0.463457        -1.065334         0.429408
 H         2.333501         1.496819        -0.953592
 H         2.368543         1.842333         0.921465
 H         2.544928        -0.127918        -1.972106
 H         2.395496        -1.779646        -1.149183
 H         4.876386        -1.084421         2.504123
 H         4.634425         0.683402         2.645928
 H         2.028619        -1.825331         1.176928
