19
Iteration:  4937charge 0 multiplicity 1
 C        -0.120263        -0.136751        -0.033274
 C         1.405419        -0.037030         0.035837
 C         2.264696         1.200869         0.063952
 C         3.228681        -0.115023         0.154639
 C         2.398052        -0.732138        -0.924397
 O         4.554997        -0.234256         0.674848
 C         4.235243        -0.376817         2.116799
 O         2.866811        -0.092478         2.384123
 C         2.301316        -0.691074         1.171137
 H        -0.498838         0.271641         0.816040
 H        -0.575459         0.557564        -0.773925
 H        -0.351489        -1.168354        -0.315660
 H         2.169473         1.821485        -0.832347
 H         2.419338         1.879237         0.951714
 H         2.439414        -0.044376        -1.855983
 H         2.231894        -1.879539        -1.151510
 H         4.569399        -1.398833         2.450439
 H         4.766251         0.280978         2.709690
 H         2.438112        -1.772745         1.257282
