19
Iteration:   487charge 0 multiplicity 1
 C        -0.162411        -0.051533        -0.003620
 C         1.336493        -0.041821         0.150323
 C         2.256763         1.199593         0.021594
 C         3.263995        -0.134746         0.119838
 C         2.263539        -0.793126        -0.933766
 O         4.617563        -0.171801         0.657936
 C         4.359812        -0.299472         2.119197
 O         2.859489        -0.246635         2.379459
 C         2.343552        -0.670478         1.147008
 H        -0.691773         0.560931         0.707931
 H        -0.335406         0.411060        -0.998866
 H        -0.492663        -1.029191         0.169524
 H         2.169371         1.759827        -0.961686
 H         2.294863         1.892318         0.900107
 H         2.469205        -0.168515        -1.758546
 H         2.159561        -1.914268        -1.115753
 H         4.616095        -1.317338         2.327046
 H         4.933496         0.487414         2.662080
 H         2.220940        -1.828062         1.238848
