19
Iteration:  2413
 C        -0.098997        -0.093748         0.092308
 C         1.378374        -0.072778         0.064090
 C         2.334954         1.155402         0.076396
 C         3.227774        -0.126832         0.113276
 C         2.452157        -0.707631        -0.988259
 O         4.502770        -0.313425         0.616173
 C         4.265303        -0.196577         2.098842
 O         2.811270        -0.172687         2.391559
 C         2.291871        -0.700460         1.181271
 H        -0.281958         0.671945         0.785687
 H        -0.599096         0.192046        -0.869670
 H        -0.515615        -1.154378         0.288741
 H         2.598715         1.808185        -0.778243
 H         2.229019         1.888700         0.926442
 H         2.344252        -0.118132        -1.852215
 H         2.387297        -1.745983        -1.246344
 H         4.640292        -1.166641         2.456042
 H         4.739318         0.754245         2.576182
 H         2.128608        -1.784940         1.148168
