19
Iteration:   639
 C        -0.163506         0.137321         0.068803
 C         1.371703        -0.076956         0.119793
 C         2.390895         1.055967         0.123502
 C         3.233096        -0.276157         0.142762
 C         2.268945        -0.668476        -1.160244
 O         4.576353        -0.306692         0.701761
 C         4.170460         0.184825         2.022210
 O         2.942492        -0.468047         2.451812
 C         2.400164        -0.871514         1.150725
 H        -0.517870         0.726117         1.014646
 H        -0.623775         0.657572        -0.931475
 H        -0.768295        -0.771525         0.058721
 H         2.380121         1.681918        -0.747771
 H         2.438697         1.655350         1.065164
 H         2.402652        -0.092013        -2.018960
 H         2.006825        -1.735501        -1.415942
 H         4.972332        -0.289806         2.743074
 H         3.982010         1.273331         2.143341
 H         2.288249        -1.891455         1.239185
