19
Iteration:   132charge 0 multiplicity 1
 C        -0.015777         0.054820         0.079870
 C         1.431649        -0.165007         0.177638
 C         2.340690         1.152512         0.179509
 C         3.221810        -0.101514         0.060867
 C         2.318777        -0.773715        -1.060154
 O         4.539708        -0.208628         0.653739
 C         4.263257        -0.127075         2.127160
 O         2.794504        -0.279902         2.294111
 C         2.283973        -0.824100         1.103367
 H        -0.395444         0.856790         0.831888
 H        -0.208536         0.450403        -0.858181
 H        -0.607939        -0.869329         0.321263
 H         2.260568         1.881674        -0.612381
 H         2.376272         1.625969         1.218975
 H         2.109220        -0.307360        -2.075272
 H         2.423798        -1.833428        -1.182822
 H         4.820742        -0.850146         2.668531
 H         4.404238         0.870832         2.552527
 H         2.251826        -1.948029         1.159338
