19
Iteration:  3038charge 0 multiplicity 1
 C        -0.068113         0.018825        -0.068478
 C         1.389095        -0.091841         0.103168
 C         2.330389         1.099184         0.080762
 C         3.240134        -0.119977         0.164137
 C         2.349741        -0.793848        -0.916562
 O         4.512304        -0.020855         0.638718
 C         4.260767        -0.315032         2.087396
 O         2.772490        -0.260935         2.375799
 C         2.356220        -0.756786         1.196042
 H        -0.336334         0.625527         0.912707
 H        -0.220797         0.490426        -1.098410
 H        -0.409122        -1.066918         0.093545
 H         2.366611         1.600378        -0.859605
 H         2.273428         1.881995         0.847602
 H         2.329903        -0.226260        -1.911256
 H         2.295285        -1.888193        -0.891477
 H         4.687238        -1.293265         2.282401
 H         4.688594         0.439934         2.757803
 H         2.379254        -1.877845         1.092013
