19
Iteration:  3125
 C        -0.185877        -0.125574        -0.011801
 C         1.418994        -0.012027         0.035421
 C         2.345814         1.193558         0.138401
 C         3.320468        -0.198643         0.132415
 C         2.320555        -0.676377        -0.972351
 O         4.610267        -0.208523         0.709480
 C         4.260355        -0.214541         2.112844
 O         2.800768        -0.179733         2.352467
 C         2.310370        -0.796661         1.134677
 H        -0.753268         0.410358         0.877558
 H        -0.664305         0.527854        -0.825348
 H        -0.517081        -1.245467        -0.069916
 H         2.492578         1.697734        -0.827721
 H         2.108553         1.672681         1.091959
 H         2.382391        -0.340274        -2.026417
 H         2.180830        -1.704595        -1.165720
 H         4.776481        -1.070936         2.622118
 H         4.646545         0.767301         2.444168
 H         2.202434        -1.878564         1.267635
