19
Iteration:  2861
 C        -0.116020        -0.035220        -0.018579
 C         1.361558        -0.029989         0.019696
 C         2.388575         1.132299         0.064787
 C         3.215592        -0.150484         0.170963
 C         2.314216        -0.639420        -0.970850
 O         4.499273        -0.254339         0.726645
 C         4.270908        -0.053546         2.119814
 O         2.869783        -0.338164         2.344952
 C         2.327627        -0.842986         1.190231
 H        -0.508705         0.425551         0.858120
 H        -0.466856         0.458707        -0.885989
 H        -0.320804        -1.130254        -0.114771
 H         2.574527         1.736345        -0.793594
 H         2.322907         1.750825         0.913377
 H         2.315989        -0.136359        -2.005060
 H         2.420927        -1.720059        -1.109467
 H         4.937238        -0.791346         2.636223
 H         4.482698         0.954467         2.549440
 H         2.099907        -1.983060         1.109925
