19
Iteration:  4298
 C        -0.234056        -0.137488        -0.093177
 C         1.293884        -0.080982         0.034381
 C         2.337811         1.180900        -0.054775
 C         3.278139        -0.083698         0.129863
 C         2.353149        -0.774640        -0.928121
 O         4.563923         0.005787         0.757683
 C         4.320933        -0.447635         2.142182
 O         2.954564        -0.178682         2.438609
 C         2.274903        -0.688283         1.191564
 H        -0.699749         0.829904         0.357193
 H        -0.326932         0.036287        -1.116540
 H        -0.756907        -1.010455         0.297101
 H         2.518733         1.650563        -0.975935
 H         2.429537         1.740466         0.850212
 H         2.288092        -0.210634        -1.957559
 H         2.146191        -1.838872        -0.814387
 H         4.386003        -1.600877         2.197404
 H         4.874753         0.014412         2.932162
 H         2.266894        -1.791416         1.246034
