19
Iteration:  3498charge 0 multiplicity 1
 C        -0.155123        -0.101515        -0.037762
 C         1.339851        -0.015085         0.034108
 C         2.297411         1.186694         0.181853
 C         3.218702        -0.212416         0.163690
 C         2.403003        -0.698210        -0.963660
 O         4.597275        -0.357040         0.702369
 C         4.236884        -0.035626         2.035403
 O         2.880633        -0.244090         2.375551
 C         2.325372        -0.775070         1.124657
 H        -0.419614         0.246496         1.007113
 H        -0.495930         0.754508        -0.655181
 H        -0.482227        -1.009587        -0.429004
 H         2.530291         1.769351        -0.728119
 H         2.177413         1.745161         1.136560
 H         2.448371        -0.102538        -1.900537
 H         2.291861        -1.832856        -1.147896
 H         4.817246        -0.595955         2.752960
 H         4.263760         0.994565         2.437187
 H         2.147010        -1.887474         1.034862
