19
Iteration:  2178charge 0 multiplicity 1
 C        -0.110382         0.081699         0.013860
 C         1.425684        -0.087005         0.089049
 C         2.376902         1.069974         0.187920
 C         3.271772        -0.178909         0.114872
 C         2.329977        -0.709708        -0.972467
 O         4.481771        -0.329618         0.610736
 C         4.281702         0.012265         2.028605
 O         2.807291        -0.265674         2.415862
 C         2.329274        -0.848506         1.153639
 H        -0.483357         0.657706         0.941444
 H        -0.486954         0.659932        -0.841103
 H        -0.624704        -0.856128        -0.149375
 H         2.373164         1.738728        -0.616225
 H         2.448017         1.536300         1.122082
 H         2.491807        -0.264921        -1.936740
 H         2.268873        -1.805326        -1.104686
 H         4.969070        -0.716133         2.641640
 H         4.367927         1.071874         2.099699
 H         2.106046        -1.926228         1.246073
