19
Iteration:   669charge 0 multiplicity 1
 C        -0.080876         0.125108         0.022661
 C         1.350422        -0.047808         0.135836
 C         2.319357         1.152037         0.158627
 C         3.230441        -0.179690         0.188095
 C         2.352779        -0.832749        -0.962264
 O         4.547490        -0.183230         0.594292
 C         4.250103         0.023834         2.032181
 O         2.916955        -0.468433         2.358301
 C         2.281776        -0.800613         1.136616
 H        -0.546170         0.440147         0.898058
 H        -0.280954         0.916178        -0.706435
 H        -0.658858        -0.828391        -0.107135
 H         2.413195         1.739914        -0.755813
 H         2.262255         1.632971         1.099278
 H         2.394342        -0.633355        -2.151195
 H         2.161000        -1.946560        -0.844108
 H         4.910315        -0.705413         2.544868
 H         4.266580         1.075732         2.322486
 H         2.118536        -1.895933         1.130299
