19
Iteration:  2515charge 0 multiplicity 1
 C        -0.123919         0.026926        -0.044489
 C         1.316067        -0.029713         0.007227
 C         2.268085         1.126784         0.122941
 C         3.261573        -0.174865         0.150957
 C         2.295692        -0.783177        -1.029827
 O         4.494166        -0.232955         0.683910
 C         4.306268        -0.158786         2.130752
 O         2.882780        -0.248983         2.396195
 C         2.420783        -0.760891         1.202942
 H        -0.395659         0.423627         0.962533
 H        -0.474136         0.649748        -0.816866
 H        -0.482912        -0.936187        -0.065043
 H         2.514408         1.803867        -0.774999
 H         2.305367         1.685934         1.063368
 H         2.191098        -0.357565        -2.047391
 H         2.407988        -1.855854        -1.141702
 H         4.786438        -1.014387         2.589746
 H         4.684155         0.836343         2.533959
 H         2.409235        -1.824526         1.143284
