19
Iteration:  4218
 C        -0.062653        -0.062908         0.058163
 C         1.404074        -0.127589         0.047420
 C         2.340253         1.154251         0.103374
 C         3.284446        -0.198614         0.109065
 C         2.337205        -0.693996        -1.025700
 O         4.554675        -0.283433         0.731536
 C         4.189810        -0.090371         2.182635
 O         2.822888        -0.170875         2.305106
 C         2.306398        -0.817613         1.141325
 H        -0.372379         0.202383         1.040089
 H        -0.549141         0.688812        -0.573076
 H        -0.762127        -0.891964        -0.281952
 H         2.319588         1.669884        -0.877422
 H         2.350227         1.943399         0.864710
 H         2.414548        -0.130706        -1.954536
 H         2.435726        -1.703264        -1.451064
 H         4.844365        -0.847507         2.738595
 H         4.467641         0.969534         2.516315
 H         2.132553        -1.937674         1.212152
