19
Iteration:  1055charge 0 multiplicity 1
 C        -0.161252        -0.095356         0.133918
 C         1.323429        -0.030348         0.084143
 C         2.336427         1.196517         0.048831
 C         3.284910        -0.112493         0.116513
 C         2.269690        -0.707310        -1.040550
 O         4.583795        -0.098841         0.685763
 C         4.314600        -0.427596         2.150810
 O         2.899887        -0.216863         2.364434
 C         2.333904        -0.743467         1.090029
 H        -0.551856         0.468207         1.096009
 H        -0.655112         0.571370        -0.684190
 H        -0.439093        -1.112755        -0.051126
 H         2.256181         1.745868        -0.954914
 H         2.271883         1.857788         0.892958
 H         2.222116        -0.028559        -1.981007
 H         2.116067        -1.825520        -1.358511
 H         4.406627        -1.502196         2.450350
 H         4.962410         0.328433         2.626913
 H         2.172988        -1.748292         1.370475
