19
Iteration:  2059charge 0 multiplicity 1
 C        -0.065182         0.057664         0.023633
 C         1.347490        -0.054840         0.086905
 C         2.261758         1.123132         0.057490
 C         3.214546        -0.099732         0.169074
 C         2.357627        -0.843620        -0.964329
 O         4.591970        -0.127624         0.602536
 C         4.317714        -0.360247         2.069538
 O         2.831797        -0.208249         2.415374
 C         2.275307        -0.723177         1.190327
 H        -0.424875         0.851821         0.708420
 H        -0.401370         0.356201        -0.958544
 H        -0.459089        -0.869322         0.345086
 H         2.421818         1.790999        -0.881719
 H         2.177759         1.787248         0.912951
 H         2.322122        -0.483718        -1.968540
 H         2.180800        -1.932376        -1.007100
 H         4.816153        -1.312818         2.457903
 H         4.774318         0.502818         2.566425
 H         2.215638        -1.845549         1.161339
