19
Iteration:  1526charge 0 multiplicity 1
 C        -0.099208         0.095900         0.022902
 C         1.330693        -0.084720         0.090772
 C         2.362819         1.086429         0.135223
 C         3.199570        -0.207263         0.158146
 C         2.309925        -0.809386        -0.985916
 O         4.579100        -0.186131         0.571193
 C         4.350321        -0.034943         2.083580
 O         2.786774        -0.345290         2.402359
 C         2.289694        -0.812111         1.162939
 H        -0.345016         0.696793         0.984113
 H        -0.190384         0.897675        -0.744276
 H        -0.702583        -0.711840        -0.303657
 H         2.564736         1.793998        -0.741711
 H         2.393935         1.647404         1.150009
 H         2.432413        -0.270056        -2.007786
 H         2.130176        -1.916970        -0.960905
 H         4.963116        -0.834590         2.507727
 H         4.666465         0.890504         2.558285
 H         2.217630        -1.849020         1.181375
