19
Iteration:  4625charge 0 multiplicity 1
 C        -0.147565        -0.049594        -0.075999
 C         1.340753        -0.060990         0.108856
 C         2.360054         1.209836         0.109963
 C         3.260819        -0.169535         0.115097
 C         2.325704        -0.771570        -0.988397
 O         4.543473        -0.150612         0.679020
 C         4.279324        -0.227863         2.175585
 O         2.859032        -0.155351         2.384985
 C         2.331094        -0.840615         1.120236
 H        -0.758908         0.198147         0.888707
 H        -0.338471         0.746057        -0.760913
 H        -0.472855        -1.071068        -0.260942
 H         2.537884         1.636915        -0.954513
 H         2.409117         1.825609         1.058536
 H         2.209928        -0.373731        -2.089736
 H         2.376544        -1.881068        -1.005497
 H         4.644065        -1.278093         2.532983
 H         4.727146         0.609903         2.744795
 H         2.138679        -1.928787         1.253048
