19
Iteration:  2972charge 0 multiplicity 1
 C        -0.017564        -0.096567        -0.036233
 C         1.387831         0.032837         0.188208
 C         2.358300         1.149060         0.125695
 C         3.221945        -0.147949         0.108799
 C         2.367654        -0.767019        -1.032591
 O         4.527211        -0.205625         0.676757
 C         4.246593        -0.270302         2.130300
 O         2.819741        -0.197437         2.340386
 C         2.279447        -0.661601         1.155113
 H        -0.763947        -0.034108         0.841487
 H        -0.695358         0.273968        -0.756748
 H        -0.259134        -1.165865        -0.215351
 H         2.336644         1.704197        -0.779061
 H         2.403593         1.798962         0.968935
 H         2.316392        -0.113346        -1.994216
 H         2.268741        -1.827857        -1.084987
 H         4.761029        -1.193862         2.483027
 H         4.657210         0.592333         2.660273
 H         2.209382        -1.782234         1.145769
