19
Iteration:  4590charge 0 multiplicity 1
 C        -0.181455        -0.006486         0.001306
 C         1.383579        -0.128969         0.025587
 C         2.351231         1.184043        -0.060679
 C         3.215036        -0.080596         0.211062
 C         2.412388        -0.796213        -0.918271
 O         4.509979        -0.055974         0.695333
 C         4.293472        -0.358364         2.104540
 O         2.851743        -0.214043         2.426890
 C         2.276129        -0.783071         1.137791
 H        -0.355847         0.210578         1.060643
 H        -0.564282         0.765055        -0.611145
 H        -0.768763        -0.894054        -0.404502
 H         2.831780         1.657181        -1.001744
 H         2.246721         2.006106         0.788778
 H         2.376645        -0.422433        -2.069570
 H         2.539492        -1.901668        -0.800670
 H         4.724939        -1.385012         2.312442
 H         4.805636         0.424122         2.773294
 H         2.281826        -1.839693         1.197526
