19
Iteration:  3747charge 0 multiplicity 1
 C        -0.179780        -0.011949         0.018840
 C         1.358326        -0.104552        -0.001901
 C         2.329875         1.119516         0.043595
 C         3.248869        -0.116595         0.178058
 C         2.432924        -0.796386        -0.996085
 O         4.513245        -0.069691         0.685315
 C         4.237413        -0.270452         2.164054
 O         2.880674        -0.224135         2.380907
 C         2.309801        -0.719097         1.128177
 H        -0.412024         0.423981         0.925154
 H        -0.569844         0.403786        -0.914564
 H        -0.596622        -1.054380         0.142890
 H         2.520769         1.751178        -0.818625
 H         2.080041         1.640340         0.983313
 H         2.671380        -0.336174        -1.948981
 H         2.421758        -1.843005        -1.293380
 H         4.665786        -1.294348         2.506182
 H         4.869152         0.347801         2.860694
 H         2.111018        -1.876866         1.293258
