19
Iteration:  3311
 C        -0.119671         0.008173        -0.055571
 C         1.385512        -0.112038         0.045875
 C         2.310209         1.132719         0.147481
 C         3.241147        -0.157739         0.137738
 C         2.330731        -0.796485        -0.956645
 O         4.596679        -0.097383         0.660145
 C         4.239464        -0.186826         2.169290
 O         2.834699        -0.238286         2.334030
 C         2.341939        -0.813569         1.177803
 H        -0.591190         0.389641         0.802562
 H        -0.435733         0.735121        -0.780778
 H        -0.620490        -0.847881        -0.363869
 H         2.145790         1.834139        -0.674451
 H         2.418098         1.566262         1.125612
 H         2.437329        -0.454118        -1.947082
 H         2.108895        -1.871649        -0.863853
 H         4.826544        -1.059487         2.502061
 H         4.663810         0.756002         2.557408
 H         2.310225        -1.908733         0.958196
