19
Iteration:  3078charge 0 multiplicity 1
 C        -0.159774        -0.086741         0.034319
 C         1.358722        -0.045447        -0.009855
 C         2.301579         1.136207         0.053852
 C         3.239004        -0.102835         0.168031
 C         2.387240        -0.707789        -0.953088
 O         4.622831        -0.185090         0.710076
 C         4.288255        -0.244649         2.127214
 O         2.824714        -0.234262         2.359746
 C         2.256459        -0.709313         1.123305
 H        -0.500952         0.683808         0.691824
 H        -0.544043         0.142992        -0.959152
 H        -0.324642        -1.150376         0.407592
 H         2.371019         1.626453        -0.969492
 H         2.320547         1.667368         1.035226
 H         2.456809        -0.140931        -1.916677
 H         2.392502        -1.731291        -1.245593
 H         4.551824        -1.303324         2.495675
 H         4.773224         0.518904         2.773053
 H         2.199683        -1.814480         1.258643
