19
Iteration:  3710charge 0 multiplicity 1
 C        -0.069458        -0.008087         0.012179
 C         1.384962        -0.133556         0.101564
 C         2.361257         1.098698         0.059194
 C         3.293225        -0.091568         0.106000
 C         2.293483        -0.826714        -0.942090
 O         4.524227        -0.008103         0.673016
 C         4.173918        -0.279451         2.203970
 O         2.818323        -0.221307         2.335634
 C         2.389319        -0.783186         1.119079
 H        -0.723451         0.350905         0.968998
 H        -0.396259         0.947690        -0.738218
 H        -0.474826        -0.923221        -0.444443
 H         2.416593         1.552301        -0.946849
 H         2.204085         1.775572         0.925586
 H         2.482457        -0.296253        -1.896230
 H         2.362445        -1.974311        -0.854649
 H         4.490218        -1.344573         2.170513
 H         4.707519         0.448247         2.823167
 H         2.444179        -1.914754         1.150528
