19
Iteration:  2233
 C        -0.068115         0.096308         0.047206
 C         1.380351        -0.074536         0.037701
 C         2.338279         1.189522         0.004494
 C         3.167953        -0.069514         0.178372
 C         2.280851        -0.803183        -1.000535
 O         4.491427        -0.260556         0.675643
 C         4.254488        -0.053217         2.100404
 O         2.901923        -0.424046         2.397389
 C         2.358613        -0.817359         1.210310
 H        -0.397967         0.838016         0.897966
 H        -0.434109         0.461475        -0.961704
 H        -0.553105        -0.876041         0.231379
 H         2.568169         1.577069        -0.948973
 H         2.263855         1.893788         0.773398
 H         2.543911        -0.306039        -1.931120
 H         2.351166        -1.895256        -1.063360
 H         4.989681        -0.761678         2.691505
 H         4.502198         0.964988         2.372148
 H         2.234642        -1.910642         1.051668
