19
Iteration:  2537
 C        -0.133629        -0.096794        -0.005620
 C         1.326708        -0.015300         0.139933
 C         2.424085         1.153888         0.101772
 C         3.254106        -0.152895         0.176059
 C         2.364516        -0.689906        -0.995177
 O         4.567960        -0.221477         0.630862
 C         4.272298        -0.139993         2.092553
 O         2.841158        -0.278284         2.349695
 C         2.207980        -0.770266         1.190767
 H        -0.626349         0.510873         0.793459
 H        -0.352192         0.325940        -0.949993
 H        -0.392969        -1.118674         0.033541
 H         2.624145         1.710957        -0.886665
 H         2.581032         1.829432         0.956470
 H         2.318442        -0.356782        -2.045692
 H         2.192805        -1.757823        -1.004382
 H         4.915416        -0.952462         2.294472
 H         4.565366         0.798386         2.662801
 H         1.949007        -1.801825         1.269029
