19
Iteration:  3263charge 0 multiplicity 1
 C        -0.143831        -0.047432         0.039204
 C         1.386373         0.000638        -0.007140
 C         2.302525         1.129009         0.148551
 C         3.284518        -0.170843         0.109567
 C         2.378141        -0.720265        -0.991949
 O         4.552571        -0.290134         0.733106
 C         4.252291        -0.009994         2.096748
 O         2.807923        -0.354027         2.386947
 C         2.328623        -0.755420         1.117453
 H        -0.506941         0.687939         0.733112
 H        -0.724311         0.193969        -0.848274
 H        -0.403205        -1.109925         0.339814
 H         2.693947         1.788778        -0.734552
 H         2.144648         1.840569         1.017035
 H         2.554795        -0.163549        -1.998297
 H         2.391523        -1.812456        -1.184044
 H         4.929990        -0.731265         2.598970
 H         4.461510         1.021616         2.284693
 H         2.139773        -1.867564         0.938782
