19
Iteration:  3203charge 0 multiplicity 1
 C        -0.163172        -0.023222        -0.037146
 C         1.398249        -0.095224         0.063123
 C         2.362391         1.119952         0.185741
 C         3.201685        -0.214407         0.150448
 C         2.324353        -0.711995        -1.091364
 O         4.586056        -0.226462         0.720415
 C         4.268557         0.040216         2.088392
 O         2.842981        -0.347981         2.384913
 C         2.301032        -0.804140         1.114808
 H        -0.259494         0.551735         0.990591
 H        -0.382836         0.629424        -0.942681
 H        -0.725881        -0.954357         0.013016
 H         2.516410         1.559774        -0.739056
 H         2.487492         1.623684         1.101528
 H         2.412134        -0.161864        -1.973032
 H         2.283704        -1.782034        -1.161052
 H         4.868002        -0.634107         2.686581
 H         4.368717         1.073783         2.523915
 H         2.163992        -1.800034         1.339145
