19
Iteration:  1619charge 0 multiplicity 1
 C        -0.180870         0.032637         0.040090
 C         1.385933        -0.010905         0.071370
 C         2.362568         1.095266         0.096076
 C         3.211893        -0.150960         0.072928
 C         2.327910        -0.701006        -1.007794
 O         4.670672        -0.314949         0.652311
 C         4.269022        -0.091086         2.048335
 O         2.803126        -0.292721         2.407584
 C         2.270780        -0.780348         1.246418
 H        -0.464202         0.578136         0.905451
 H        -0.713974         0.412248        -0.846527
 H        -0.535006        -1.022959         0.033767
 H         2.437697         1.708320        -0.828603
 H         2.590097         1.748381         0.957642
 H         2.309197        -0.202739        -1.964343
 H         2.313763        -1.816015        -1.071470
 H         4.818301        -0.774861         2.752445
 H         4.580959         0.965229         2.447427
 H         2.231365        -1.944405         1.061084
