19
Iteration:  3193charge 0 multiplicity 1
 C        -0.158141         0.036861        -0.020763
 C         1.335203        -0.118817         0.027120
 C         2.357517         1.096929         0.172297
 C         3.295364        -0.170320         0.132499
 C         2.391884        -0.765844        -1.023831
 O         4.494992        -0.205534         0.728438
 C         4.246548        -0.011177         2.101469
 O         2.882229        -0.341987         2.380673
 C         2.360173        -0.793311         1.132178
 H        -0.661374         0.516004         0.889609
 H        -0.525358         0.766264        -0.806278
 H        -0.724125        -0.869252        -0.188292
 H         2.459814         1.773788        -0.651501
 H         2.250239         1.590186         1.107483
 H         2.231300        -0.362385        -1.952504
 H         2.304881        -1.852943        -1.166651
 H         4.937267        -0.663481         2.573301
 H         4.453879         1.049334         2.356184
 H         2.214160        -1.829630         1.057887
