19
Iteration:  3020charge 0 multiplicity 1
 C        -0.138439        -0.009059        -0.012342
 C         1.349977        -0.109414         0.048679
 C         2.259105         1.152729         0.079708
 C         3.255219        -0.101907         0.118986
 C         2.431939        -0.801761        -1.003003
 O         4.574817        -0.082049         0.706730
 C         4.268008        -0.291046         2.124275
 O         2.909820        -0.195100         2.402131
 C         2.230871        -0.811878         1.165356
 H        -0.663484         0.490774         0.769661
 H        -0.265281         0.620867        -0.923692
 H        -0.782383        -0.801963        -0.242587
 H         2.224510         1.875246        -0.789709
 H         2.288625         1.746802         1.037541
 H         2.436544        -0.355509        -1.970939
 H         2.512871        -1.963435        -0.937842
 H         4.613029        -1.356160         2.359430
 H         4.925361         0.429622         2.670519
 H         1.993832        -1.920887         1.242572
