19
Iteration:  1538
 C        -0.120631         0.177403         0.054108
 C         1.424030        -0.076752         0.037093
 C         2.323541         1.097669         0.146738
 C         3.271858        -0.259613         0.125253
 C         2.343997        -0.790260        -0.977663
 O         4.542339        -0.203638         0.634373
 C         4.217030        -0.074970         2.021644
 O         2.878876        -0.320088         2.419262
 C         2.317775        -0.853719         1.181351
 H        -0.551683         0.511699         1.034723
 H        -0.465490         0.872440        -0.730454
 H        -0.651928        -0.763092        -0.042302
 H         2.322774         1.714644        -0.854104
 H         2.249126         1.733978         1.085403
 H         2.363350        -0.191438        -1.978804
 H         2.292379        -1.874015        -1.217709
 H         4.877769        -0.751191         2.609021
 H         4.301472         1.030282         2.169584
 H         2.111665        -1.892959         1.219469
