19
Iteration:  2362charge 0 multiplicity 1
 C        -0.126183         0.021224        -0.034088
 C         1.346613        -0.092431         0.132650
 C         2.376022         1.125703         0.052253
 C         3.223387        -0.133725         0.138636
 C         2.267971        -0.777929        -0.921494
 O         4.568388        -0.134176         0.650519
 C         4.287721        -0.232735         2.086910
 O         2.840508        -0.255225         2.445195
 C         2.341999        -0.785603         1.153922
 H        -0.613289         0.724629         0.704191
 H        -0.299575         0.432260        -1.001861
 H        -0.553834        -0.932372        -0.082506
 H         2.204487         1.604533        -0.977119
 H         2.491885         1.976146         0.726322
 H         2.320615        -0.278267        -1.903349
 H         2.370564        -1.911734        -1.040004
 H         4.905538        -1.083494         2.400144
 H         4.636815         0.750486         2.464648
 H         2.297576        -1.888963         1.094933
