19
Iteration:   222
 C        -0.171921         0.093115        -0.019925
 C         1.349829        -0.130243         0.092787
 C         2.372410         0.987629         0.163319
 C         3.227682        -0.213774         0.124371
 C         2.303325        -0.727768        -1.001102
 O         4.534314        -0.137042         0.687033
 C         4.328764        -0.103881         2.083162
 O         2.910627        -0.271080         2.363799
 C         2.283934        -0.802734         1.152257
 H        -0.554457         0.369272         0.929545
 H        -0.492738         0.936277        -0.794842
 H        -0.659371        -0.868228        -0.381321
 H         2.490359         1.822466        -0.651390
 H         2.400960         1.506291         1.207087
 H         2.317655        -0.162098        -2.029039
 H         2.259157        -1.842672        -1.345296
 H         4.990356        -0.797684         2.572588
 H         4.510732         0.918103         2.496016
 H         2.206062        -1.927291         1.260346
