19
Iteration:  2036charge 0 multiplicity 1
 C        -0.189617        -0.112330         0.008115
 C         1.356857         0.052092         0.135030
 C         2.453143         1.111925         0.035637
 C         3.223435        -0.125118         0.133437
 C         2.289326        -0.768953        -0.962008
 O         4.515608        -0.120558         0.693410
 C         4.305138        -0.351516         2.065267
 O         2.888080        -0.194932         2.357187
 C         2.270773        -0.658598         1.194547
 H        -0.693030         0.579499         0.738034
 H        -0.585715         0.227777        -0.928838
 H        -0.518315        -1.097247         0.178489
 H         2.500253         1.713465        -0.925564
 H         2.686754         1.790915         0.869258
 H         2.517486        -0.471270        -1.958712
 H         2.122340        -1.865068        -0.918137
 H         4.504306        -1.451390         2.338576
 H         4.991718         0.286644         2.623316
 H         2.418648        -1.767376         1.070441
