19
Iteration:   459
 C        -0.108926        -0.042336         0.070321
 C         1.366332        -0.099576         0.081626
 C         2.437703         1.179807         0.170832
 C         3.213992        -0.134492         0.115378
 C         2.316286        -0.761008        -0.974081
 O         4.474552        -0.276082         0.630328
 C         4.231852        -0.079790         2.089617
 O         2.858319        -0.258098         2.324473
 C         2.321026        -0.776898         1.102711
 H        -0.384551         0.722454         0.884951
 H        -0.474782         0.340114        -0.856802
 H        -0.519066        -1.013498         0.492289
 H         2.502767         1.850294        -0.638526
 H         2.492078         1.669800         1.161792
 H         2.538920        -0.152217        -1.870800
 H         2.380479        -1.812750        -1.152272
 H         4.795677        -0.924576         2.556164
 H         4.600699         0.915920         2.315361
 H         2.311593        -1.825098         1.162643
