19
Iteration:  2082charge 0 multiplicity 1
 C        -0.262989         0.107904         0.039146
 C         1.277014        -0.188797         0.114540
 C         2.368895         1.137253         0.050840
 C         3.254371        -0.124602         0.134741
 C         2.399281        -0.771442        -0.970670
 O         4.518617        -0.195948         0.680175
 C         4.268222        -0.251198         2.123729
 O         2.912443        -0.189845         2.346198
 C         2.407799        -0.824560         1.144147
 H        -0.426825         0.897724         0.759491
 H        -0.498244         0.567035        -0.945768
 H        -0.901715        -0.754540         0.240502
 H         2.334441         1.827167        -0.958422
 H         2.373175         1.872413         0.868575
 H         2.249571        -0.292074        -1.934797
 H         2.465666        -1.853349        -1.190228
 H         4.802677        -1.181673         2.495652
 H         4.755321         0.675774         2.594123
 H         2.313735        -1.946538         1.227058
