19
Iteration:  2737charge 0 multiplicity 1
 C        -0.099142        -0.056637         0.026429
 C         1.385242        -0.040254         0.081585
 C         2.308372         1.093499         0.022137
 C         3.245570        -0.184095         0.132494
 C         2.382022        -0.648206        -1.019076
 O         4.539469        -0.218028         0.678203
 C         4.251530        -0.115930         2.161695
 O         2.828900        -0.366133         2.395710
 C         2.298313        -0.715292         1.141914
 H        -0.316683         0.703233         0.811322
 H        -0.361253         0.275521        -1.049622
 H        -0.718759        -0.929261         0.262271
 H         2.481627         1.797238        -0.855464
 H         2.299683         1.703894         1.004800
 H         2.541204        -0.147026        -1.954173
 H         2.372301        -1.779632        -1.092386
 H         4.905086        -0.816528         2.690809
 H         4.567478         0.928808         2.535643
 H         1.985432        -1.737023         1.112421
