19
Iteration:  3247
 C        -0.125928        -0.090711         0.058651
 C         1.361025        -0.065790         0.034811
 C         2.444649         1.258976         0.151399
 C         3.245445        -0.096599         0.160054
 C         2.392956        -0.710210        -1.072578
 O         4.572105        -0.350111         0.727793
 C         4.251215        -0.004515         2.093348
 O         2.809672        -0.346341         2.335055
 C         2.250547        -0.798653         1.098412
 H        -0.612557         0.688622         0.898099
 H        -0.538042         0.127384        -1.032444
 H        -0.551995        -1.023277         0.400502
 H         2.274313         1.869633        -0.644042
 H         2.419746         1.544778         1.158159
 H         2.359155        -0.394066        -2.057142
 H         2.325535        -1.801323        -1.034969
 H         4.861073        -0.418856         2.883035
 H         4.260381         1.172217         2.232643
 H         2.173695        -1.883006         1.112473
