19
Iteration:  3055charge 0 multiplicity 1
 C        -0.216957        -0.037510        -0.008732
 C         1.381350        -0.057354         0.075030
 C         2.393636         1.188728         0.031458
 C         3.248772        -0.136778         0.132007
 C         2.325510        -0.773558        -1.016839
 O         4.525344        -0.051523         0.742190
 C         4.255390        -0.285833         2.147567
 O         2.880625        -0.246539         2.411921
 C         2.340781        -0.807806         1.098099
 H        -0.623516         0.720150         0.615530
 H        -0.423425         0.255011        -1.022980
 H        -0.529120        -1.038791         0.210219
 H         2.434497         1.762230        -0.960480
 H         2.398193         1.669598         1.018620
 H         2.358727        -0.447819        -2.034559
 H         2.292554        -1.893628        -1.062436
 H         4.690328        -1.308708         2.493406
 H         4.744535         0.534228         2.735271
 H         2.333955        -1.896436         1.255624
