19
Iteration:  1841charge 0 multiplicity 1
 C        -0.128897         0.005528         0.014077
 C         1.348615        -0.017541         0.144367
 C         2.478713         1.148710         0.105491
 C         3.291801        -0.174717         0.079373
 C         2.314746        -0.690357        -1.004826
 O         4.490118        -0.362167         0.657767
 C         4.287296        -0.015080         2.012411
 O         2.811599        -0.324134         2.435209
 C         2.273251        -0.774547         1.194839
 H        -0.747701         0.222602         0.941449
 H        -0.501922         0.635354        -0.809606
 H        -0.366414        -1.047597        -0.141561
 H         2.567971         1.728661        -0.833222
 H         2.589865         1.647455         1.051951
 H         2.193532        -0.163354        -1.952295
 H         2.089267        -1.751543        -1.073818
 H         5.063765        -0.684386         2.591934
 H         4.458735         1.089151         2.203045
 H         2.351463        -1.830238         1.202373
