19
Iteration:  2858charge 0 multiplicity 1
 C        -0.095409        -0.049127        -0.020810
 C         1.389928        -0.022164         0.041803
 C         2.387096         1.141578         0.051106
 C         3.220062        -0.148838         0.151541
 C         2.321280        -0.637463        -0.936990
 O         4.498095        -0.273120         0.740204
 C         4.263457        -0.036606         2.070036
 O         2.858625        -0.355115         2.372797
 C         2.292432        -0.816658         1.153567
 H        -0.494310         0.373492         0.898350
 H        -0.538289         0.525352        -0.958670
 H        -0.398782        -1.166573        -0.155673
 H         2.530935         1.810612        -0.847250
 H         2.208643         1.761966         1.005548
 H         2.426159        -0.114001        -1.833831
 H         2.338406        -1.754116        -1.087382
 H         4.829073        -0.790370         2.563403
 H         4.626112         0.939131         2.511665
 H         2.330405        -2.050102         1.188998
