19
Iteration:  1965
 C        -0.160202         0.002650         0.070041
 C         1.347444        -0.042515         0.123448
 C         2.357583         1.106118         0.086013
 C         3.189405        -0.191296         0.127611
 C         2.417143        -0.768955        -0.981596
 O         4.641812        -0.167509         0.611120
 C         4.215697        -0.278190         2.111553
 O         2.865295        -0.170165         2.349146
 C         2.258621        -0.729446         1.130836
 H        -0.561161         0.444196         0.965335
 H        -0.611313         0.736917        -0.645026
 H        -0.663935        -1.005589        -0.040201
 H         2.371208         1.577761        -0.878288
 H         2.524972         1.787295         0.873254
 H         2.574064        -0.357890        -2.001562
 H         2.043959        -1.796520        -1.011482
 H         4.855630        -1.286895         2.487373
 H         4.601078         0.563325         2.778211
 H         2.161691        -1.778993         1.303350
