19
Iteration:   705
 C        -0.187756        -0.089038         0.025138
 C         1.319881        -0.098686         0.096838
 C         2.365032         1.142138         0.126705
 C         3.241514        -0.133201         0.207541
 C         2.250720        -0.638918        -1.012699
 O         4.560744        -0.236103         0.644003
 C         4.318076        -0.239528         2.089622
 O         2.906894        -0.189751         2.339873
 C         2.328859        -0.753176         1.170639
 H        -0.525734         0.378194         1.007418
 H        -0.446959         0.607803        -0.900350
 H        -0.593208        -1.007741        -0.265098
 H         2.457696         1.547519        -0.837610
 H         2.135039         1.993568         0.788346
 H         2.536842        -0.132695        -1.900493
 H         2.254472        -1.784228        -1.125387
 H         4.778067        -1.235502         2.522533
 H         4.898070         0.617371         2.483655
 H         2.301694        -1.788012         1.255662
