19
Iteration:  1640charge 0 multiplicity 1
 C        -0.148129         0.056602        -0.005631
 C         1.379030        -0.092920         0.119681
 C         2.266132         1.168521         0.088480
 C         3.287019        -0.138253         0.140474
 C         2.323323        -0.805471        -0.950213
 O         4.492864        -0.260326         0.640419
 C         4.278375        -0.210716         2.134034
 O         2.933489        -0.222280         2.372766
 C         2.336563        -0.770697         1.135535
 H        -0.471739         0.702141         0.758603
 H        -0.403178         0.683081        -0.884207
 H        -0.780077        -0.854735        -0.226138
 H         2.361186         1.879091        -0.837407
 H         1.994824         1.806135         0.976473
 H         2.478997        -0.317845        -1.896959
 H         2.337753        -1.942378        -0.953750
 H         4.963164        -0.985081         2.591762
 H         4.744319         0.773233         2.562481
 H         2.201409        -1.854753         0.966208
