19
Iteration:  1596
 C        -0.079463        -0.031077         0.163544
 C         1.431031         0.013446         0.048902
 C         2.494887         1.124310         0.169281
 C         3.222529        -0.237539         0.126181
 C         2.297892        -0.682552        -1.011937
 O         4.448039        -0.373815         0.642964
 C         4.193207         0.074865         2.142542
 O         2.870800        -0.325374         2.315720
 C         2.250354        -0.776253         1.061939
 H        -0.474013         0.560656         0.907982
 H        -0.439954         0.256798        -0.838583
 H        -0.434107        -1.102831         0.077903
 H         2.708943         1.706771        -0.821387
 H         2.723954         1.762233         1.006262
 H         2.350654        -0.145408        -1.942306
 H         2.082287        -1.790942        -1.168153
 H         4.909420        -0.482965         2.833714
 H         4.536562         1.191478         2.318969
 H         2.119456        -1.943278         1.093887
