19
Iteration:  3650
 C        -0.110554        -0.173188        -0.056639
 C         1.412782        -0.057937         0.110522
 C         2.360343         1.244618         0.145924
 C         3.282663        -0.109498         0.117029
 C         2.342790        -0.692124        -1.000612
 O         4.549878        -0.318261         0.680293
 C         4.271712        -0.170027         2.080690
 O         2.788621        -0.198870         2.397145
 C         2.293050        -0.726815         1.154691
 H        -0.596515         0.413879         0.780360
 H        -0.450954         0.205171        -1.098949
 H        -0.596636        -1.226644         0.185646
 H         2.232613         1.940724        -0.718802
 H         2.421781         1.877719         1.044063
 H         2.383118        -0.162580        -2.012645
 H         2.453433        -1.746244        -1.223335
 H         4.668340        -1.094591         2.542788
 H         4.592793         0.805591         2.600158
 H         2.158515        -1.862633         1.257626
