19
Iteration:   536
 C        -0.114790        -0.086412        -0.001155
 C         1.331738        -0.049859         0.128098
 C         2.290760         1.139746         0.034920
 C         3.267054        -0.088076         0.087821
 C         2.405544        -0.837270        -0.873981
 O         4.562842        -0.010422         0.629718
 C         4.228631        -0.536177         1.992808
 O         2.910409        -0.131598         2.396363
 C         2.279555        -0.609709         1.224653
 H        -0.592095         0.404720         0.878810
 H        -0.402873         0.589114        -0.863582
 H        -0.592937        -1.157584        -0.244569
 H         2.230211         1.839319        -0.801115
 H         2.391588         1.670764         0.997146
 H         2.150593        -0.351568        -1.947406
 H         2.301352        -1.883220        -0.619225
 H         4.486756        -1.615714         2.046638
 H         4.858100        -0.047465         2.811751
 H         2.254569        -1.690920         1.418457
