19
Iteration:  3746
 C        -0.172697        -0.007426         0.024218
 C         1.351380        -0.114787         0.003223
 C         2.332492         1.105418         0.046611
 C         3.247418        -0.110455         0.161665
 C         2.426443        -0.791796        -1.003511
 O         4.518231        -0.065069         0.694070
 C         4.242974        -0.269184         2.168151
 O         2.877845        -0.225018         2.378477
 C         2.302015        -0.716419         1.136381
 H        -0.418020         0.422956         0.978174
 H        -0.540111         0.449885        -0.979895
 H        -0.578730        -1.059099         0.124441
 H         2.518224         1.741583        -0.807766
 H         2.053531         1.667913         0.947766
 H         2.677486        -0.356977        -1.960742
 H         2.457784        -1.877785        -1.290177
 H         4.672753        -1.308246         2.469839
 H         4.889328         0.354545         2.860430
 H         2.083125        -1.870641         1.269659
