19
Iteration:  3449
 C        -0.169840         0.042616        -0.038176
 C         1.387365        -0.080508         0.088471
 C         2.323059         1.085979         0.093299
 C         3.294756        -0.115650         0.177959
 C         2.325375        -0.775447        -0.932967
 O         4.565825        -0.084553         0.651207
 C         4.286918        -0.186523         2.172595
 O         2.846974        -0.298562         2.322938
 C         2.336455        -0.807570         1.105404
 H        -0.488710         0.844749         0.557374
 H        -0.546552         0.227639        -1.051479
 H        -0.462383        -1.045575         0.245406
 H         2.231982         1.716812        -0.799307
 H         2.196823         1.597805         1.044547
 H         2.477739        -0.409966        -1.979176
 H         2.163859        -1.831205        -0.914516
 H         4.744888        -1.060537         2.635470
 H         4.496757         0.613513         2.755242
 H         2.091311        -1.817334         1.132863
