19
Iteration:  3395
 C        -0.140938        -0.154148         0.041611
 C         1.397803        -0.052889         0.082753
 C         2.357492         1.255968         0.087271
 C         3.252011        -0.135747         0.165485
 C         2.364989        -0.762740        -1.022978
 O         4.576144        -0.123397         0.690156
 C         4.234146        -0.354959         2.120631
 O         2.828729        -0.120714         2.346314
 C         2.309824        -0.752309         1.115410
 H        -0.524719         0.481534         0.822867
 H        -0.492555         0.095616        -0.958548
 H        -0.501596        -1.236788         0.446815
 H         2.543094         1.895410        -0.816373
 H         2.338494         1.952331         0.932717
 H         2.227929        -0.344923        -2.066641
 H         2.484745        -1.863074        -1.081033
 H         4.282239        -1.424723         2.420487
 H         4.727450         0.280197         2.734577
 H         2.050826        -1.779500         1.112647
