19
Iteration:   505
 C        -0.204318        -0.072928        -0.032354
 C         1.324803        -0.049089         0.040340
 C         2.348300         1.136183        -0.002327
 C         3.199383        -0.092070         0.157242
 C         2.349064        -0.745560        -0.970480
 O         4.481139        -0.069408         0.654062
 C         4.314206        -0.458141         2.106078
 O         3.006073        -0.152897         2.462892
 C         2.306347        -0.702095         1.240218
 H        -0.620077         0.436667         0.826927
 H        -0.455198         0.560149        -0.966381
 H        -0.579004        -1.173326         0.044208
 H         2.435325         1.644869        -0.978078
 H         2.341018         1.806890         0.807400
 H         2.130993        -0.391077        -1.999927
 H         2.315665        -1.806999        -0.927015
 H         4.627872        -1.573607         2.087562
 H         4.962228         0.289329         2.617495
 H         2.309059        -1.762688         1.371039
