19
Iteration:  1617charge 0 multiplicity 1
 C        -0.175225         0.020409         0.045060
 C         1.380803        -0.012102         0.084590
 C         2.394344         1.103244         0.097142
 C         3.217305        -0.161830         0.072619
 C         2.319873        -0.701719        -1.023352
 O         4.654497        -0.310787         0.670407
 C         4.265112        -0.085729         2.030565
 O         2.803210        -0.291978         2.405619
 C         2.272275        -0.793625         1.245338
 H        -0.473172         0.590758         0.867708
 H        -0.738537         0.440549        -0.809199
 H        -0.525735        -1.059936         0.067183
 H         2.487211         1.780288        -0.872277
 H         2.550181         1.738460         0.972941
 H         2.340712        -0.144835        -1.963429
 H         2.302307        -1.839099        -1.077665
 H         4.842516        -0.751166         2.727740
 H         4.522369         0.945135         2.394996
 H         2.191057        -1.829388         1.067101
