19
Iteration:  1861charge 0 multiplicity 1
 C        -0.115423        -0.051347         0.020211
 C         1.358744         0.058153         0.157367
 C         2.426298         1.200067         0.206709
 C         3.224038        -0.242095         0.169211
 C         2.263069        -0.679786        -0.989144
 O         4.606039        -0.413947         0.709317
 C         4.215865        -0.011745         2.043804
 O         2.884001        -0.272549         2.228645
 C         2.294198        -0.820815         1.116541
 H        -0.707019         0.422701         0.891303
 H        -0.477273         0.451917        -0.875959
 H        -0.614180        -1.021714         0.040082
 H         2.443983         1.657471        -0.819792
 H         2.609430         1.802864         1.195428
 H         2.397775        -0.127956        -1.954519
 H         2.169679        -1.764846        -1.091648
 H         4.856392        -0.498226         2.814599
 H         4.420824         1.093627         1.991135
 H         1.977779        -1.814330         1.317626
