19
Iteration:  4486charge 0 multiplicity 1
 C        -0.143606        -0.055240        -0.033799
 C         1.393177         0.007350         0.022452
 C         2.322558         1.187225         0.116413
 C         3.217559        -0.125686         0.169228
 C         2.408847        -0.772253        -1.000169
 O         4.525593        -0.273303         0.654791
 C         4.197265        -0.096648         2.175503
 O         2.901717        -0.304085         2.425201
 C         2.349021        -0.777422         1.137174
 H        -0.714796         0.710171         0.577845
 H        -0.449209         0.308333        -1.108310
 H        -0.678614        -0.951904         0.221607
 H         2.471913         1.787531        -0.803890
 H         2.190189         1.658046         1.073078
 H         2.361524        -0.283519        -1.944026
 H         2.133045        -1.933784        -0.975241
 H         4.893944        -0.827029         2.579986
 H         4.607742         0.871036         2.337011
 H         2.327559        -1.855172         0.938912
