19
Iteration:  1088charge 0 multiplicity 1
 C        -0.146402         0.108714         0.138509
 C         1.397209        -0.088573         0.105645
 C         2.371213         1.153089         0.043934
 C         3.276156        -0.074819         0.143689
 C         2.329219        -0.845488        -0.941367
 O         4.547496         0.099267         0.674938
 C         4.312293        -0.325522         2.008949
 O         2.786636        -0.428248         2.337241
 C         2.313705        -0.856519         1.108927
 H        -0.268807         0.766932         1.146511
 H        -0.471249         0.626225        -0.863096
 H        -0.849559        -0.691479         0.365514
 H         2.399541         1.668951        -0.993780
 H         2.221811         1.823654         0.861243
 H         2.191635        -0.299624        -1.955898
 H         2.349751        -1.997298        -0.971651
 H         4.725906        -1.340967         2.354606
 H         4.805953         0.437365         2.654961
 H         2.223609        -1.920636         1.118992
