19
Iteration:   770charge 0 multiplicity 1
 C        -0.150735        -0.101601         0.152895
 C         1.348363         0.000190         0.093334
 C         2.269890         1.188920        -0.059163
 C         3.239021        -0.056802         0.103690
 C         2.338676        -0.736516        -1.025261
 O         4.572562        -0.092431         0.712904
 C         4.280924        -0.509512         2.097486
 O         2.904381        -0.232974         2.416901
 C         2.340036        -0.622369         1.148800
 H        -0.658593         0.641537         0.767551
 H        -0.562843         0.149623        -0.886384
 H        -0.424312        -1.064737         0.408359
 H         2.290047         1.535034        -1.016776
 H         2.141262         1.996904         0.671101
 H         2.455764        -0.201179        -1.970468
 H         2.378132        -1.914412        -1.118533
 H         4.652268        -1.529774         2.222031
 H         4.842425         0.036989         2.849248
 H         2.178442        -1.723119         1.074090
