19
Iteration:  3382
 C        -0.127842        -0.183081         0.049044
 C         1.384215        -0.022877         0.048639
 C         2.401325         1.181934         0.088349
 C         3.287444        -0.074863         0.063524
 C         2.334174        -0.766867        -0.953983
 O         4.527430        -0.151424         0.737536
 C         4.240553        -0.386470         2.109878
 O         2.799850        -0.116908         2.323847
 C         2.326785        -0.653509         1.132781
 H        -0.650503         0.475928         0.806942
 H        -0.665529         0.190463        -0.872921
 H        -0.352918        -1.360084         0.013326
 H         2.285621         1.861530        -0.762830
 H         2.380086         1.575701         1.117006
 H         2.482291        -0.239192        -1.943351
 H         2.124867        -1.811865        -0.964841
 H         4.618974        -1.429572         2.304272
 H         4.844296         0.278657         2.726474
 H         2.450461        -1.709803         1.347030
