19
Iteration:  2018
 C        -0.187665        -0.098137         0.053285
 C         1.373217         0.006061         0.135103
 C         2.349197         1.235251        -0.003945
 C         3.264583        -0.186326         0.103489
 C         2.314536        -0.740545        -0.972379
 O         4.643712        -0.181550         0.635365
 C         4.294191        -0.432032         2.125066
 O         2.842593        -0.105757         2.419158
 C         2.298144        -0.702850         1.162563
 H        -0.815798         0.319453         0.843883
 H        -0.561040         0.214051        -0.994479
 H        -0.389801        -1.228059        -0.048121
 H         2.442232         1.734374        -1.031639
 H         2.315654         1.953133         0.799378
 H         2.121358        -0.110931        -1.850260
 H         2.326205        -1.851339        -1.126489
 H         4.537547        -1.420966         2.272497
 H         4.794289         0.320148         2.760214
 H         1.896363        -1.643859         1.481075
