19
Iteration:  4316
 C        -0.086102        -0.049093        -0.111790
 C         1.379968        -0.041586         0.045436
 C         2.305898         1.181867         0.079684
 C         3.210567        -0.074865         0.213673
 C         2.405730        -0.838821        -0.905911
 O         4.502710        -0.041961         0.669181
 C         4.255071        -0.437393         2.076223
 O         2.876095        -0.164723         2.391420
 C         2.325572        -0.705078         1.216890
 H        -0.648267         0.728263         0.425329
 H        -0.680531        -0.238025        -1.035742
 H        -0.490848        -0.959841         0.466553
 H         2.326017         1.637281        -0.945930
 H         2.140770         1.852506         0.905055
 H         2.513869        -0.445501        -1.935705
 H         2.531033        -1.902072        -0.913170
 H         4.451217        -1.514520         2.126807
 H         4.921864         0.228377         2.626705
 H         2.229868        -1.827445         1.158324
