19
Iteration:  4748
 C        -0.105791         0.084682         0.036746
 C         1.366160        -0.109000         0.075669
 C         2.258994         1.085748         0.175222
 C         3.203394        -0.175014         0.125862
 C         2.460386        -0.774028        -0.989372
 O         4.616643        -0.258407         0.680244
 C         4.201102         0.031588         1.990075
 O         2.776761        -0.376738         2.402832
 C         2.351031        -0.804228         1.111170
 H        -0.366467         0.580662         0.968276
 H        -0.284404         0.990263        -0.730391
 H        -0.768488        -0.729645        -0.212688
 H         2.484990         1.884648        -0.581771
 H         2.380716         1.598835         1.112334
 H         2.621916        -0.287914        -1.953296
 H         2.391774        -1.952849        -1.062693
 H         4.843280        -0.481761         2.883078
 H         4.159759         1.078560         2.154521
 H         2.332142        -1.951674         1.002658
