19
Iteration:  3248
 C        -0.138120        -0.081778         0.061805
 C         1.374842        -0.064349         0.021663
 C         2.441285         1.258562         0.143214
 C         3.247379        -0.096099         0.178485
 C         2.396545        -0.715434        -1.075231
 O         4.573462        -0.346804         0.730570
 C         4.262065        -0.010188         2.087435
 O         2.808539        -0.347669         2.337614
 C         2.249882        -0.796616         1.091274
 H        -0.638663         0.682554         0.926389
 H        -0.532157         0.107460        -1.052178
 H        -0.537679        -1.042338         0.407337
 H         2.247333         1.908050        -0.650027
 H         2.370077         1.526102         1.174395
 H         2.308447        -0.369682        -2.065728
 H         2.315870        -1.820728        -1.015832
 H         4.863427        -0.415400         2.873439
 H         4.243368         1.155414         2.248655
 H         2.161262        -1.899820         1.169264
