19
Iteration:  1278charge 0 multiplicity 1
 C        -0.220121         0.033074         0.115222
 C         1.412707        -0.072361         0.060286
 C         2.380522         1.227961         0.046953
 C         3.216086        -0.080023         0.103798
 C         2.321942        -0.651241        -0.995186
 O         4.568746        -0.339766         0.700774
 C         4.322364        -0.067218         2.088359
 O         2.858151        -0.453336         2.404904
 C         2.321091        -0.820048         1.086311
 H        -0.488494         0.696218         0.994536
 H        -0.584648         0.479735        -0.827224
 H        -0.788430        -0.983808         0.397356
 H         2.529839         1.651278        -0.891605
 H         2.294790         1.824599         0.959931
 H         2.416597        -0.030060        -1.939202
 H         2.010993        -1.729573        -1.198811
 H         5.029168        -0.620986         2.712518
 H         4.231887         1.040047         2.360641
 H         2.381721        -1.836427         0.887009
