19
Iteration:  3124charge 0 multiplicity 1
 C        -0.173462        -0.121122        -0.007368
 C         1.414095        -0.017030         0.043467
 C         2.346051         1.185633         0.132738
 C         3.319210        -0.192444         0.136091
 C         2.323053        -0.674194        -0.964563
 O         4.612484        -0.212343         0.711475
 C         4.252002        -0.219097         2.105236
 O         2.800736        -0.174129         2.350575
 C         2.307455        -0.793056         1.131525
 H        -0.765726         0.398562         0.841715
 H        -0.678911         0.496629        -0.813178
 H        -0.507813        -1.251369        -0.058593
 H         2.478994         1.775795        -0.856192
 H         2.103994         1.650773         1.115448
 H         2.388503        -0.336126        -2.046545
 H         2.216838        -1.701157        -1.164539
 H         4.794527        -1.095044         2.616144
 H         4.639187         0.774056         2.429053
 H         2.178002        -1.891923         1.233757
