19
Iteration:  4888
 C        -0.073748        -0.042694         0.022635
 C         1.444541        -0.063433         0.077196
 C         2.377750         1.162586         0.071062
 C         3.249143        -0.127464         0.119345
 C         2.353695        -0.807056        -0.952020
 O         4.516722         0.012626         0.674932
 C         4.211520        -0.347484         2.102104
 O         2.794923        -0.264657         2.363822
 C         2.309149        -0.743317         1.129991
 H        -0.473283         0.928136         0.547357
 H        -0.458132         0.131990        -0.965444
 H        -0.461543        -0.993340         0.427283
 H         2.508918         1.837280        -0.835831
 H         2.228561         1.798720         0.957928
 H         2.393187        -0.550465        -1.994391
 H         2.304526        -1.935541        -0.739654
 H         4.512978        -1.381044         2.230621
 H         4.834958         0.314600         2.866504
 H         2.073047        -1.825065         1.253656
