19
Iteration:  3702charge 0 multiplicity 1
 C        -0.108946        -0.026544         0.021937
 C         1.405235        -0.098941         0.064214
 C         2.358866         1.065010         0.073999
 C         3.267760        -0.089232         0.150729
 C         2.315767        -0.792972        -0.995598
 O         4.564219        -0.019101         0.663196
 C         4.210636        -0.304755         2.187680
 O         2.834024        -0.205849         2.367565
 C         2.296174        -0.743894         1.084280
 H        -0.673274         0.185047         0.895776
 H        -0.331086         0.739184        -0.696450
 H        -0.575726        -0.874591        -0.460464
 H         2.391129         1.576472        -0.882372
 H         2.412563         1.668805         0.973789
 H         2.155637        -0.587144        -2.031969
 H         2.516631        -1.889223        -0.889781
 H         4.711236        -1.238605         2.514597
 H         4.607216         0.437279         2.935383
 H         2.382368        -1.854135         1.314693
