19
Iteration:  3722
 C        -0.106906         0.017116        -0.014344
 C         1.425736        -0.126999         0.127307
 C         2.292321         1.153244        -0.000489
 C         3.254124        -0.144537         0.150466
 C         2.374270        -0.824577        -0.932026
 O         4.544376         0.011506         0.723810
 C         4.217327        -0.312285         2.101244
 O         2.770613        -0.202814         2.356443
 C         2.408633        -0.832252         1.131370
 H        -0.384054         0.254609         1.107839
 H        -0.284249         0.891157        -0.875027
 H        -0.700505        -0.884163        -0.255354
 H         2.198364         1.732996        -0.923206
 H         2.381290         1.844840         0.866725
 H         2.297322        -0.399787        -1.948008
 H         2.157277        -1.922330        -1.223599
 H         4.586860        -1.335454         2.449284
 H         4.784581         0.372380         2.783276
 H         2.451229        -1.984285         1.188225
