19
Iteration:  3973
 C        -0.129022        -0.029089        -0.097974
 C         1.347184        -0.077531         0.102839
 C         2.306359         1.174861         0.092315
 C         3.236219        -0.185996         0.132146
 C         2.417664        -0.723546        -0.956465
 O         4.511110        -0.131509         0.647205
 C         4.328290        -0.208003         2.108488
 O         2.831828        -0.308444         2.406607
 C         2.337782        -0.742799         1.221061
 H        -0.636538         0.714198         0.453914
 H        -0.415185         0.154611        -1.152576
 H        -0.564736        -0.935167         0.173959
 H         2.269996         1.800521        -0.842064
 H         2.506624         1.808424         0.989020
 H         2.421613        -0.278092        -1.926729
 H         2.136569        -1.859328        -0.881271
 H         4.750680        -1.118100         2.579949
 H         4.450155         0.794382         2.628141
 H         2.375873        -1.879532         1.104219
