19
Iteration:  1607charge 0 multiplicity 1
 C        -0.137335        -0.028902         0.084252
 C         1.361492        -0.020655         0.116017
 C         2.530107         1.179870         0.105578
 C         3.246520        -0.239517         0.138800
 C         2.295274        -0.710923        -1.055535
 O         4.511346        -0.302749         0.710641
 C         4.268597        -0.042788         2.031839
 O         2.823245        -0.299766         2.373547
 C         2.289114        -0.779631         1.118832
 H        -0.535640         0.491708         0.903578
 H        -0.500646         0.469706        -0.824676
 H        -0.536665        -1.062843         0.283667
 H         2.635677         1.843221        -0.825091
 H         2.374199         1.706713         1.037244
 H         2.401669        -0.132240        -1.962175
 H         2.166269        -1.814899        -1.280090
 H         4.969755        -0.708069         2.610258
 H         4.306767         1.091137         2.184345
 H         2.035409        -1.884253         1.263595
