19
Iteration:   450charge 0 multiplicity 1
 C        -0.147273        -0.007511         0.171858
 C         1.370649        -0.047570         0.058366
 C         2.428542         1.111866         0.172518
 C         3.247632        -0.239440         0.131227
 C         2.428254        -0.731472        -1.054746
 O         4.522123        -0.295611         0.623949
 C         4.268814         0.006175         2.022431
 O         2.780387        -0.287512         2.365430
 C         2.295139        -0.761624         1.154074
 H        -0.426728         0.770023         0.899048
 H        -0.586317         0.157651        -0.898995
 H        -0.659222        -1.041311         0.168757
 H         2.445277         1.835569        -0.633260
 H         2.402939         1.576793         1.130491
 H         2.414641        -0.083127        -1.951039
 H         2.110341        -1.672693        -1.403848
 H         5.013250        -0.703930         2.597615
 H         4.482724         1.026478         2.464542
 H         2.176477        -1.850989         1.140667
