19
Iteration:   986
 C        -0.274482        -0.046499         0.016914
 C         1.338261        -0.042875         0.110206
 C         2.393347         1.187834         0.091931
 C         3.197464        -0.116479         0.167580
 C         2.237815        -0.648106        -0.963293
 O         4.549372        -0.198899         0.645211
 C         4.394280        -0.260426         2.057616
 O         2.913401        -0.274179         2.405647
 C         2.375612        -0.795238         1.134988
 H        -0.889281         0.431423         0.783196
 H        -0.600188         0.343806        -1.016636
 H        -0.544177        -1.173426        -0.117919
 H         2.447234         1.631248        -0.890824
 H         2.558024         1.893794         0.978236
 H         2.400889        -0.084173        -1.804431
 H         2.379036        -1.681967        -1.142079
 H         4.731270        -1.260312         2.458486
 H         4.754150         0.598119         2.609732
 H         2.326773        -1.808663         1.154428
