19
Iteration:  2065charge 0 multiplicity 1
 C        -0.124122         0.090075         0.036144
 C         1.405134        -0.064460         0.098978
 C         2.239180         1.086405         0.048602
 C         3.224081        -0.110926         0.151618
 C         2.353632        -0.826260        -0.970252
 O         4.611925        -0.151583         0.612595
 C         4.343741        -0.307821         2.074196
 O         2.818110        -0.230152         2.416843
 C         2.271314        -0.703087         1.183780
 H        -0.399152         0.899090         0.731201
 H        -0.473126         0.306273        -0.995054
 H        -0.707924        -0.861971         0.248267
 H         2.264789         1.621389        -0.839609
 H         2.211447         1.718531         0.955358
 H         2.491248        -0.353517        -1.984433
 H         2.283794        -1.920427        -0.921402
 H         4.595845        -1.370212         2.351764
 H         4.813983         0.544955         2.566191
 H         2.398782        -1.782336         1.155015
