19
Iteration:  1574charge 0 multiplicity 1
 C        -0.134225         0.037543         0.165688
 C         1.428916        -0.012378         0.090494
 C         2.444698         1.190728         0.136763
 C         3.306604        -0.242683         0.121285
 C         2.308754        -0.709000        -1.032645
 O         4.603467        -0.390134         0.702282
 C         4.180556         0.021992         1.963288
 O         2.752655        -0.364919         2.384845
 C         2.317239        -0.780819         1.086737
 H        -0.418987         0.611300         0.997038
 H        -0.601042         0.386959        -0.752065
 H        -0.529893        -1.035359         0.184375
 H         2.494174         1.912709        -0.768931
 H         2.299066         1.750528         1.038492
 H         2.348067        -0.184019        -1.983970
 H         2.190250        -1.814028        -1.196036
 H         4.942932        -0.230708         2.751328
 H         4.197003         1.188370         1.950911
 H         2.068087        -1.927000         1.220248
