19
Iteration:  1434charge 0 multiplicity 1
 C        -0.099332        -0.081987         0.116718
 C         1.427027        -0.048900         0.097781
 C         2.376011         1.168952         0.053588
 C         3.310679        -0.066438         0.115636
 C         2.261400        -0.717620        -1.031922
 O         4.646809        -0.196923         0.602044
 C         4.133297        -0.351988         2.163559
 O         2.835031        -0.138155         2.381622
 C         2.309280        -0.716109         1.118329
 H        -0.489454         0.638456         0.888529
 H        -0.648938         0.011496        -0.891340
 H        -0.511178        -1.151539         0.414411
 H         2.484294         1.746543        -0.850491
 H         2.351185         1.711941         0.954224
 H         1.944329        -0.233677        -1.973079
 H         2.205471        -1.882145        -1.118493
 H         4.324251        -1.405165         2.338418
 H         4.789205         0.126124         2.893461
 H         2.143862        -1.762838         1.211622
