19
Iteration:  3056charge 0 multiplicity 1
 C        -0.232838        -0.041319        -0.014825
 C         1.379085        -0.058894         0.080284
 C         2.395338         1.191746         0.032558
 C         3.255112        -0.144788         0.133870
 C         2.327655        -0.774729        -1.027079
 O         4.526007        -0.050931         0.740698
 C         4.263522        -0.296789         2.155327
 O         2.879644        -0.243641         2.409398
 C         2.341130        -0.798773         1.095846
 H        -0.571281         0.721047         0.641427
 H        -0.402109         0.251267        -1.017437
 H        -0.526576        -1.061586         0.250006
 H         2.440054         1.762194        -0.942353
 H         2.366642         1.681414         1.007263
 H         2.355672        -0.436039        -2.067119
 H         2.284139        -1.854328        -1.040657
 H         4.724512        -1.284109         2.517015
 H         4.709309         0.544819         2.733338
 H         2.295209        -1.864150         1.261563
