19
Iteration:   970
 C        -0.164923         0.026264         0.013675
 C         1.311353        -0.029771         0.195888
 C         2.359266         1.150723         0.135534
 C         3.231748        -0.116395         0.087093
 C         2.373479        -0.780622        -1.009953
 O         4.540528        -0.099512         0.602094
 C         4.278430        -0.229785         2.118004
 O         2.931592        -0.376932         2.361965
 C         2.301971        -0.772983         1.176399
 H        -0.512523         0.649980         0.867253
 H        -0.362866         0.449972        -0.938963
 H        -0.732609        -0.867541         0.094246
 H         2.378746         1.810368        -0.772667
 H         2.308975         1.700728         1.030073
 H         2.083276        -0.303682        -2.030101
 H         2.093851        -1.872044        -0.941417
 H         4.934975        -1.035560         2.387545
 H         4.716438         0.747257         2.461518
 H         2.161226        -1.969412         1.032559
