19
Iteration:  4779charge 0 multiplicity 1
 C        -0.111509        -0.059986        -0.019111
 C         1.344483        -0.058971         0.102279
 C         2.403775         1.113067         0.144140
 C         3.178180        -0.203750         0.158012
 C         2.309844        -0.672718        -1.113371
 O         4.551354        -0.302186         0.746191
 C         4.277401         0.026651         2.096610
 O         2.863615        -0.284060         2.393184
 C         2.288364        -0.836259         1.140178
 H        -0.579378         0.078619         0.959116
 H        -0.378280         0.736011        -0.645016
 H        -0.499764        -0.876520        -0.540841
 H         2.681290         1.776267        -0.773426
 H         2.546900         1.727157         1.021327
 H         2.427744         0.015951        -1.956126
 H         2.205135        -1.795060        -1.237979
 H         4.932914        -0.535507         2.767706
 H         4.447099         1.076707         2.243046
 H         2.202365        -1.872764         1.046766
