19
Iteration:  3356
 C        -0.142115        -0.170236        -0.010719
 C         1.417393        -0.046488         0.100333
 C         2.342380         1.263124         0.020122
 C         3.262296        -0.102980         0.148187
 C         2.379042        -0.750023        -0.975747
 O         4.546238        -0.163029         0.666180
 C         4.253052        -0.347702         2.136466
 O         2.833645        -0.141784         2.371082
 C         2.286678        -0.763170         1.178745
 H        -0.628319         0.247959         0.912279
 H        -0.614279         0.569082        -0.714039
 H        -0.404677        -1.093903        -0.353465
 H         2.380831         1.743647        -0.963189
 H         2.122272         1.930112         0.861870
 H         2.381054        -0.172534        -1.856620
 H         2.306012        -1.854288        -1.118640
 H         4.635418        -1.390412         2.281204
 H         4.930082         0.397895         2.784503
 H         2.145389        -1.826816         1.615190
