19
Iteration:  3304
 C        -0.115177         0.010543        -0.077440
 C         1.362361        -0.074457         0.121536
 C         2.314172         1.055868         0.139571
 C         3.205308        -0.166078         0.148493
 C         2.331063        -0.783945        -0.970462
 O         4.603901        -0.102160         0.690573
 C         4.290512        -0.156691         2.091035
 O         2.785251        -0.279229         2.347606
 C         2.370091        -0.771352         1.107457
 H        -0.436735         0.470742         0.987174
 H        -0.322350         0.797395        -0.898499
 H        -0.549434        -1.012982        -0.250251
 H         2.264873         1.812713        -0.639594
 H         2.431414         1.666479         1.058160
 H         2.344085        -0.381247        -1.991188
 H         2.274168        -1.887265        -0.930031
 H         4.651746        -1.053924         2.601651
 H         4.534757         0.829846         2.633558
 H         2.395486        -1.849221         1.306811
