19
Iteration:  1855charge 0 multiplicity 1
 C        -0.154036        -0.062722         0.049079
 C         1.395454         0.063796         0.210579
 C         2.470841         1.157240         0.181664
 C         3.163347        -0.222971         0.162286
 C         2.262345        -0.682357        -0.968885
 O         4.579194        -0.422014         0.679937
 C         4.283187         0.037730         2.074381
 O         2.863615        -0.283061         2.254429
 C         2.283347        -0.801795         1.064839
 H        -0.696769         0.412400         0.826651
 H        -0.323061         0.484607        -0.915606
 H        -0.572001        -1.071631        -0.220001
 H         2.529665         1.711612        -0.743704
 H         2.519634         1.829481         0.964986
 H         2.421839        -0.188386        -1.908008
 H         2.320569        -1.777286        -1.130775
 H         4.893196        -0.589919         2.831212
 H         4.401560         1.122971         2.212395
 H         1.883280        -1.872235         1.061400
