19
Iteration:  4485charge 0 multiplicity 1
 C        -0.139591        -0.049863        -0.035704
 C         1.391280        -0.000569         0.030475
 C         2.328076         1.191740         0.127757
 C         3.218705        -0.120661         0.167086
 C         2.409157        -0.784595        -1.007238
 O         4.533804        -0.271351         0.654420
 C         4.187750        -0.089134         2.163507
 O         2.901825        -0.309134         2.422427
 C         2.341217        -0.770451         1.143870
 H        -0.734735         0.740772         0.617167
 H        -0.424588         0.313105        -1.118735
 H        -0.712118        -0.975618         0.195909
 H         2.460086         1.737899        -0.800055
 H         2.208875         1.647124         1.110214
 H         2.379708        -0.313486        -1.980618
 H         2.140883        -1.907245        -0.966993
 H         4.904489        -0.829182         2.568807
 H         4.584357         0.888851         2.357709
 H         2.302323        -1.878284         0.928327
