19
Iteration:  1517charge 0 multiplicity 1
 C        -0.141317         0.109927        -0.063413
 C         1.358034        -0.118735         0.177013
 C         2.445887         1.075295         0.133763
 C         3.159660        -0.137266         0.136318
 C         2.258552        -0.786239        -0.971223
 O         4.533994        -0.171398         0.634818
 C         4.396145        -0.112409         2.093742
 O         2.828089        -0.304547         2.354622
 C         2.300329        -0.814159         1.167569
 H        -0.558570         0.474301         0.879600
 H        -0.452678         0.847515        -0.763581
 H        -0.620407        -0.845075        -0.189995
 H         2.444232         1.776239        -0.804199
 H         2.455672         1.636981         1.098928
 H         2.337318        -0.406725        -2.056457
 H         2.380629        -1.860057        -0.800043
 H         4.917590        -0.990482         2.584558
 H         4.704270         0.953489         2.409392
 H         2.183716        -1.914428         0.939826
