19
Iteration:  3028charge 0 multiplicity 1
 C        -0.051682        -0.022042        -0.048467
 C         1.421921        -0.126481         0.129988
 C         2.289574         1.159333         0.070283
 C         3.231936        -0.133727         0.156526
 C         2.393002        -0.767682        -0.939671
 O         4.553682        -0.026047         0.648667
 C         4.279352        -0.343010         2.107070
 O         2.823329        -0.232359         2.394400
 C         2.270754        -0.762813         1.133746
 H        -0.554263         0.755138         0.798650
 H        -0.415315         0.657448        -0.941508
 H        -0.827817        -0.913437        -0.159287
 H         2.309096         1.619576        -0.885890
 H         2.152726         1.707179         1.023588
 H         2.371267        -0.500089        -2.055611
 H         2.374860        -1.919715        -1.002567
 H         4.677253        -1.332936         2.405334
 H         4.696522         0.533045         2.634074
 H         2.084511        -1.851379         1.396127
