19
Iteration:  1040
 C        -0.181075        -0.149743         0.102297
 C         1.375023        -0.032207         0.115687
 C         2.329321         1.193826         0.120124
 C         3.209597        -0.069439         0.130844
 C         2.344241        -0.625935        -0.984748
 O         4.618756        -0.248052         0.637036
 C         4.273532        -0.407595         2.018579
 O         2.862293        -0.115528         2.318366
 C         2.288623        -0.689722         1.161773
 H        -0.544194         0.086377         1.076526
 H        -0.634521         0.421647        -0.732838
 H        -0.611472        -1.235467        -0.023852
 H         2.478566         1.767095        -0.767748
 H         2.374633         1.777637         1.105922
 H         2.368335        -0.198960        -1.897947
 H         2.399711        -1.643166        -0.945839
 H         4.583087        -1.490804         2.179884
 H         4.710247         0.204481         2.817449
 H         2.423741        -1.833713         1.136538
