19
Iteration:   959
 C        -0.062971         0.116497         0.062737
 C         1.423451        -0.065645         0.113702
 C         2.251740         1.125016         0.183912
 C         3.206025        -0.156381         0.104147
 C         2.330384        -0.821085        -0.935980
 O         4.511321        -0.067173         0.585192
 C         4.332307        -0.177250         2.052933
 O         2.865014        -0.425184         2.368243
 C         2.317245        -0.774806         1.090899
 H        -0.434504         0.867477         0.795688
 H        -0.386391         0.552040        -0.850770
 H        -0.541768        -0.821887         0.179627
 H         2.128276         1.781597        -0.711885
 H         2.414397         1.643812         1.074345
 H         2.412644        -0.343869        -1.999259
 H         2.342077        -1.966018        -0.977778
 H         4.797407        -0.994460         2.554800
 H         4.525309         0.795541         2.588662
 H         2.059131        -1.938624         1.233012
