19
Iteration:   566
 C        -0.140273        -0.078705         0.060161
 C         1.333113        -0.040887         0.038847
 C         2.297811         1.151889        -0.008246
 C         3.236444        -0.126757         0.150382
 C         2.293102        -0.693426        -0.960854
 O         4.564672        -0.152003         0.706739
 C         4.332339        -0.368667         2.090874
 O         2.885153        -0.174848         2.349767
 C         2.343166        -0.740736         1.188449
 H        -0.510108         0.496213         0.947999
 H        -0.553886         0.333763        -0.764439
 H        -0.568751        -1.020664         0.000130
 H         2.418660         1.710412        -0.935769
 H         2.271192         1.955016         0.836559
 H         2.310636        -0.207015        -1.973407
 H         2.064243        -1.805970        -1.077411
 H         4.673782        -1.286320         2.506457
 H         4.797629         0.368816         2.715505
 H         2.467796        -1.884233         1.338143
