19
Iteration:  1286charge 0 multiplicity 1
 C        -0.191816        -0.005872         0.126564
 C         1.384531        -0.014308         0.041676
 C         2.298532         1.251286         0.085828
 C         3.265198        -0.102748         0.127832
 C         2.315737        -0.646018        -1.046198
 O         4.603039        -0.406019         0.691927
 C         4.285134        -0.107160         2.044492
 O         2.854169        -0.426428         2.449488
 C         2.350063        -0.759949         1.092580
 H        -0.702064         0.673020         0.922755
 H        -0.623037         0.310104        -0.815097
 H        -0.477874        -1.066814         0.156708
 H         2.498967         1.878379        -0.804438
 H         2.299426         2.076636         0.884203
 H         2.353631        -0.082762        -1.998634
 H         2.099830        -1.662018        -1.093755
 H         4.902104        -0.653143         2.783225
 H         4.352561         1.015040         2.088479
 H         2.411312        -1.910144         1.157283
