19
Iteration:  1721
 C        -0.100661        -0.082878         0.089620
 C         1.422684        -0.021811         0.037418
 C         2.268028         1.256564        -0.054687
 C         3.234866        -0.105280         0.162689
 C         2.396337        -0.715522        -0.951372
 O         4.554132        -0.286043         0.639615
 C         4.221048        -0.396000         2.116313
 O         2.874212        -0.168201         2.395794
 C         2.299025        -0.614509         1.180643
 H        -0.440521         0.412936         1.033659
 H        -0.663974         0.180403        -0.790396
 H        -0.336999        -1.076391         0.399572
 H         2.256633         1.701007        -1.009589
 H         2.292207         1.910535         0.784296
 H         2.423443        -0.329399        -1.978650
 H         2.384138        -1.782802        -0.951840
 H         4.386308        -1.483118         2.307060
 H         4.734612         0.309597         2.767479
 H         2.132687        -1.756515         1.116683
