19
Iteration:  4231charge 0 multiplicity 1
 C        -0.189563        -0.044463         0.047352
 C         1.386527        -0.056590         0.053425
 C         2.309076         1.108993         0.072091
 C         3.256281        -0.216395         0.177688
 C         2.466017        -0.737567        -1.063983
 O         4.547043        -0.240850         0.729853
 C         4.275158        -0.144002         2.132137
 O         2.778513        -0.128452         2.339919
 C         2.329667        -0.790891         1.082100
 H        -0.513396         0.145699         1.087827
 H        -0.436433         0.708323        -0.547093
 H        -0.420802        -1.041408        -0.165903
 H         2.356159         1.773904        -0.769193
 H         2.246442         1.546692         1.014492
 H         2.522955        -0.074179        -1.976015
 H         2.189886        -1.736974        -0.977440
 H         4.627330        -1.066685         2.639999
 H         4.770112         0.737872         2.539065
 H         2.363547        -1.854483         1.238154
