19
Iteration:  1616charge 0 multiplicity 1
 C        -0.171046         0.011689         0.045780
 C         1.376573        -0.013572         0.091428
 C         2.412145         1.111106         0.096066
 C         3.220966        -0.168964         0.075025
 C         2.315796        -0.704232        -1.030550
 O         4.643302        -0.308355         0.679803
 C         4.265124        -0.082307         2.024098
 O         2.804095        -0.291549         2.404100
 C         2.273795        -0.798512         1.239788
 H        -0.490316         0.607246         0.875005
 H        -0.739125         0.458673        -0.793683
 H        -0.517965        -1.064870         0.091725
 H         2.508842         1.801297        -0.873775
 H         2.522266         1.733626         0.984159
 H         2.356643        -0.117244        -1.967640
 H         2.293102        -1.835235        -1.084845
 H         4.851466        -0.739370         2.703418
 H         4.484495         0.928231         2.358178
 H         2.168333        -1.786808         1.080566
