19
Iteration:  3034charge 0 multiplicity 1
 C        -0.075441         0.012285        -0.070352
 C         1.411623        -0.109738         0.131202
 C         2.317402         1.119814         0.084320
 C         3.238167        -0.135476         0.174286
 C         2.362871        -0.780820        -0.924417
 O         4.521024        -0.013344         0.626626
 C         4.273927        -0.339452         2.091074
 O         2.773839        -0.254569         2.377492
 C         2.335941        -0.742548         1.170794
 H        -0.261097         0.584798         0.751263
 H        -0.247614         0.538940        -0.959906
 H        -0.461659        -0.986948         0.035012
 H         2.357688         1.571714        -0.941121
 H         2.176357         1.810765         0.914532
 H         2.335216        -0.360983        -1.923677
 H         2.304224        -1.845837        -0.928687
 H         4.720048        -1.309517         2.354219
 H         4.618677         0.480683         2.715973
 H         2.277854        -1.822001         1.248360
