19
Iteration:  1059
 C        -0.159950        -0.054752         0.122604
 C         1.361569         0.002067         0.106191
 C         2.327908         1.170740         0.017983
 C         3.306389        -0.117852         0.106389
 C         2.260006        -0.735791        -1.069367
 O         4.525900        -0.058350         0.687190
 C         4.337039        -0.438717         2.180454
 O         2.898641        -0.237099         2.379641
 C         2.335141        -0.747737         1.075821
 H        -0.426715         0.402621         1.032367
 H        -0.626691         0.490878        -0.626743
 H        -0.549344        -1.084560         0.039968
 H         2.234562         1.681613        -0.915836
 H         2.284508         1.801895         0.913156
 H         2.210489        -0.049348        -1.992712
 H         2.013950        -1.799897        -1.340077
 H         4.558826        -1.458071         2.451697
 H         4.921256         0.324929         2.716104
 H         2.288990        -1.853530         1.384747
