19
Iteration:  3290charge 0 multiplicity 1
 C        -0.116972         0.013642         0.004156
 C         1.398929        -0.128188         0.134960
 C         2.383988         1.137562         0.112683
 C         3.295915        -0.131696         0.088201
 C         2.360541        -0.754959        -1.020632
 O         4.515827        -0.150533         0.696172
 C         4.267669        -0.101475         2.106822
 O         2.793130        -0.282118         2.388176
 C         2.280647        -0.868678         1.178048
 H        -0.738184         0.549822         0.740492
 H        -0.363844         0.476824        -0.966375
 H        -0.558720        -0.931166        -0.111095
 H         2.504411         1.579808        -0.845229
 H         2.254918         1.768139         0.956657
 H         2.244274        -0.169982        -1.870810
 H         2.489291        -1.806846        -1.276813
 H         4.926425        -0.892272         2.455746
 H         4.626609         0.899802         2.510770
 H         2.136567        -1.891335         1.026714
