19
Iteration:  3766
 C        -0.135826        -0.118612         0.001110
 C         1.348415        -0.024878         0.008069
 C         2.341230         1.183763         0.108895
 C         3.230833        -0.106887         0.095331
 C         2.406880        -0.689878        -0.987895
 O         4.569943        -0.186812         0.707709
 C         4.281358        -0.282185         2.119847
 O         2.782727        -0.191050         2.390357
 C         2.290169        -0.780353         1.202473
 H        -0.525268         0.657161         0.766142
 H        -0.466027         0.084447        -1.158254
 H        -0.402647        -1.146777         0.348411
 H         2.340869         1.736918        -0.839759
 H         2.362756         1.958300         0.864346
 H         2.466153        -0.427348        -2.053681
 H         2.476219        -1.839995        -0.867703
 H         4.759039        -1.236020         2.393275
 H         4.800900         0.601452         2.580975
 H         2.298755        -1.850960         1.040717
