19
Iteration:  2240
 C        -0.108487         0.061634         0.083044
 C         1.378284        -0.032514         0.042619
 C         2.329684         1.177258         0.009193
 C         3.225892        -0.097581         0.151228
 C         2.340008        -0.771362        -1.004167
 O         4.483249        -0.269696         0.675173
 C         4.324781        -0.074530         2.125161
 O         2.888004        -0.400617         2.383711
 C         2.269431        -0.828252         1.170164
 H        -0.524626         0.800987         0.833485
 H        -0.285693         0.464172        -0.889606
 H        -0.613003        -0.902575         0.271882
 H         2.495868         1.670331        -0.985055
 H         2.242662         1.986428         0.811683
 H         2.514304        -0.360229        -2.017349
 H         2.461141        -1.907204        -0.951047
 H         4.990706        -0.652054         2.685773
 H         4.506900         1.004243         2.347627
 H         2.068797        -1.947620         1.238555
