19
Iteration:  1772
 C        -0.017901         0.071720         0.033079
 C         1.435465        -0.082060         0.084553
 C         2.352977         1.075673         0.103842
 C         3.282645        -0.187138         0.140499
 C         2.263082        -0.740326        -0.972156
 O         4.541416        -0.157480         0.547217
 C         4.219785        -0.232651         2.174232
 O         2.809852        -0.187365         2.403073
 C         2.316526        -0.829462         1.125901
 H        -0.389557         0.671491         0.881416
 H        -0.293465         0.526184        -0.923195
 H        -0.462146        -0.931567         0.282952
 H         2.288106         1.576234        -0.880856
 H         2.343727         1.686987         1.101391
 H         2.159796        -0.197774        -1.939599
 H         2.042070        -1.825915        -1.067467
 H         4.673955        -1.138509         2.531605
 H         4.631111         0.743861         2.619757
 H         2.072677        -1.844137         1.120633
