19
Iteration:   526charge 0 multiplicity 1
 C        -0.132273        -0.073202        -0.029631
 C         1.379945        -0.025271         0.082680
 C         2.280327         1.175935         0.049468
 C         3.170452        -0.139891         0.206295
 C         2.367820        -0.843772        -0.847699
 O         4.566322         0.009031         0.655991
 C         4.331593        -0.546590         1.934519
 O         2.888019        -0.097263         2.389425
 C         2.280291        -0.661426         1.241224
 H        -0.546540         0.305535         0.915398
 H        -0.440984         0.636775        -0.902001
 H        -0.550968        -1.195993        -0.103572
 H         2.328884         1.788712        -0.857589
 H         2.298517         1.742234         0.955793
 H         2.570334        -0.552706        -1.963503
 H         2.372944        -1.911177        -0.900083
 H         4.323651        -1.692602         1.872919
 H         5.028413         0.046378         2.615134
 H         2.124352        -1.709881         1.216846
