19
Iteration:   672charge 0 multiplicity 1
 C        -0.075871         0.104409         0.012267
 C         1.338048        -0.036212         0.142155
 C         2.311072         1.153450         0.169407
 C         3.257706        -0.170300         0.147011
 C         2.342504        -0.852369        -0.978390
 O         4.539163        -0.181251         0.596482
 C         4.238979        -0.017096         2.030787
 O         2.905874        -0.454837         2.367864
 C         2.297829        -0.783868         1.148295
 H        -0.557968         0.480568         0.998439
 H        -0.282683         0.992524        -0.755419
 H        -0.559257        -0.835414        -0.141370
 H         2.243321         1.766727        -0.688703
 H         2.240518         1.751543         1.127838
 H         2.481462        -0.657982        -2.020634
 H         2.221827        -1.969415        -0.815833
 H         5.003724        -0.736956         2.589376
 H         4.377713         1.061929         2.300110
 H         2.104998        -1.803744         1.129210
