19
Iteration:   237
 C        -0.135417         0.065145         0.048099
 C         1.354886        -0.085837         0.002731
 C         2.306078         1.141737         0.160008
 C         3.193335        -0.235230         0.190480
 C         2.335803        -0.789341        -1.079039
 O         4.499463        -0.074724         0.665525
 C         4.303042        -0.169031         2.153113
 O         2.909293        -0.217130         2.347595
 C         2.360986        -0.933867         1.160902
 H        -0.356855         0.658215         0.966074
 H        -0.300460         0.794484        -0.849365
 H        -0.800293        -0.748646        -0.111707
 H         2.373300         1.634985        -0.818537
 H         2.279391         1.756103         0.990837
 H         2.532740        -0.245978        -1.941014
 H         2.152352        -1.890420        -1.080505
 H         4.737653        -1.226168         2.408489
 H         4.854023         0.659203         2.585301
 H         2.277072        -1.986794         1.219125
