19
Iteration:  2631
 C        -0.112435         0.018233         0.054009
 C         1.468774        -0.017336         0.034134
 C         2.306311         1.117631         0.081145
 C         3.244843        -0.192925         0.104248
 C         2.305650        -0.787159        -0.953595
 O         4.578050        -0.143548         0.722730
 C         4.270291        -0.090586         2.138467
 O         2.803421        -0.309852         2.319493
 C         2.290527        -0.801681         1.140622
 H        -0.560481         0.413380         0.917449
 H        -0.375135         0.739706        -0.722563
 H        -0.459857        -0.979728        -0.246882
 H         2.354881         1.704811        -0.768410
 H         2.448244         1.560418         1.030567
 H         2.443297        -0.366559        -1.933973
 H         2.017215        -1.886051        -1.076395
 H         4.776208        -1.039871         2.454907
 H         4.633955         0.761918         2.677817
 H         2.245366        -1.948811         1.018254
