19
Iteration:  1659charge 0 multiplicity 1
 C        -0.096719         0.069613        -0.057378
 C         1.294046        -0.123320         0.110249
 C         2.351729         1.120459         0.101786
 C         3.176808        -0.151132         0.175625
 C         2.355324        -0.803449        -0.985364
 O         4.519357        -0.109540         0.624577
 C         4.364675        -0.307175         2.076866
 O         2.857093        -0.180654         2.392989
 C         2.316041        -0.761578         1.221549
 H        -0.564650         0.595857         0.782670
 H        -0.383113         0.727925        -0.916002
 H        -0.497487        -0.993476        -0.181032
 H         2.229428         1.700742        -0.910762
 H         2.488410         1.761877         0.958210
 H         2.233553        -0.319631        -1.970983
 H         2.309818        -1.925546        -0.871752
 H         4.701654        -1.322732         2.339613
 H         4.933307         0.370043         2.633565
 H         2.296117        -1.810365         1.350715
