19
Iteration:  4364
 C        -0.161414        -0.066725        -0.005895
 C         1.345741        -0.033056         0.017420
 C         2.396131         1.174705         0.054895
 C         3.258693        -0.172320         0.147940
 C         2.300850        -0.697972        -1.044587
 O         4.614665        -0.217075         0.794339
 C         4.268486        -0.122909         2.167425
 O         2.810728        -0.196230         2.310314
 C         2.348549        -0.896163         1.190521
 H        -0.521631         0.505908         0.943024
 H        -0.766448         0.315777        -0.833229
 H        -0.663489        -1.054056         0.019175
 H         2.441363         1.660707        -0.873520
 H         2.428781         1.729230         1.010031
 H         2.215830        -0.124947        -2.088320
 H         2.137583        -1.841945        -1.185799
 H         4.939140        -0.987294         2.504028
 H         4.568681         0.864534         2.523669
 H         2.248363        -2.022800         1.190474
