19
Iteration:  4404
 C        -0.138638         0.009979         0.046345
 C         1.431849        -0.014059         0.076238
 C         2.415972         1.185761         0.112916
 C         3.190894        -0.179137         0.162522
 C         2.425510        -0.740651        -0.969237
 O         4.530466        -0.301114         0.699027
 C         4.198414         0.061514         2.009535
 O         2.784754        -0.392141         2.360927
 C         2.318128        -0.874179         1.147477
 H        -0.346948         0.149748         1.148093
 H        -0.448007         0.875412        -0.539270
 H        -0.568233        -0.898885        -0.521271
 H         2.496344         1.767436        -0.864084
 H         2.439384         1.865926         0.940513
 H         2.671931        -0.567542        -2.025201
 H         2.466824        -1.746547        -0.906021
 H         4.806145        -0.275330         2.833827
 H         4.097398         1.170837         2.020263
 H         2.148162        -1.994096         1.140161
