19
Iteration:   402charge 0 multiplicity 1
 C        -0.060615         0.104246         0.097961
 C         1.385709        -0.025329         0.153264
 C         2.393137         1.107269         0.139347
 C         3.265014        -0.194974         0.021756
 C         2.265527        -0.805481        -1.028189
 O         4.545089        -0.279341         0.694579
 C         4.180680         0.109717         2.025041
 O         2.824969        -0.451510         2.421569
 C         2.361972        -0.821765         1.073869
 H        -0.421013         0.484399         1.146327
 H        -0.383677         0.774482        -0.633213
 H        -0.460622        -0.831126        -0.162017
 H         2.422696         1.861581        -0.666636
 H         2.431778         1.654745         1.117504
 H         2.369635        -0.516197        -2.058022
 H         2.286663        -1.901543        -0.975165
 H         4.925089        -0.185652         2.687467
 H         4.091286         1.192396         2.044695
 H         2.234906        -1.880760         1.058438
