19
Iteration:  3972
 C        -0.128091        -0.035058        -0.097828
 C         1.346927        -0.079516         0.099429
 C         2.313496         1.177999         0.095880
 C         3.233323        -0.187040         0.129258
 C         2.416952        -0.721837        -0.950529
 O         4.512921        -0.135197         0.639347
 C         4.314773        -0.196800         2.116569
 O         2.838006        -0.309651         2.407386
 C         2.336373        -0.744892         1.226494
 H        -0.665350         0.750579         0.447262
 H        -0.403869         0.153632        -1.121752
 H        -0.556385        -0.937636         0.161842
 H         2.291960         1.790912        -0.854897
 H         2.507550         1.792358         1.006850
 H         2.423539        -0.280204        -1.913378
 H         2.147939        -1.824486        -0.945543
 H         4.745136        -1.149558         2.563534
 H         4.458498         0.818607         2.599800
 H         2.346996        -1.893667         1.094260
