19
Iteration:   254
 C        -0.104404         0.069686         0.071764
 C         1.358835        -0.127132         0.071956
 C         2.289344         1.083458         0.028968
 C         3.262040        -0.078006         0.114691
 C         2.398181        -0.778850        -0.953387
 O         4.561614        -0.074808         0.646686
 C         4.261926        -0.346885         2.060677
 O         2.804232        -0.245270         2.394289
 C         2.343352        -0.745347         1.158541
 H        -0.400341         0.677456         0.913859
 H        -0.513911         0.580311        -0.839518
 H        -0.554168        -0.916413         0.380000
 H         2.267219         1.725453        -0.943579
 H         2.140212         1.668010         1.019585
 H         2.290401        -0.217029        -1.972345
 H         2.437799        -1.916776        -0.943642
 H         4.629250        -1.299649         2.318715
 H         4.642810         0.449655         2.730017
 H         2.411632        -1.891245         1.253484
