19
Iteration:  2776
 C        -0.153236         0.043423         0.035683
 C         1.366525        -0.078435         0.075364
 C         2.352405         1.090155         0.158976
 C         3.282433        -0.190893         0.106360
 C         2.399399        -0.774133        -0.970843
 O         4.568192        -0.156457         0.716678
 C         4.223737        -0.096795         2.131447
 O         2.819424        -0.344697         2.325595
 C         2.302870        -0.771050         1.046718
 H        -0.562959         0.648770         0.906331
 H        -0.406802         0.596234        -0.850007
 H        -0.714057        -0.873989         0.028254
 H         2.388586         1.587639        -0.808067
 H         2.429819         1.731333         0.999252
 H         2.494028        -0.178183        -1.966204
 H         2.274653        -1.827709        -1.107346
 H         4.973554        -0.720486         2.692447
 H         4.298364         0.958030         2.381655
 H         2.248877        -1.919551         1.256286
