19
Iteration:  3569
 C        -0.146482         0.058351         0.038464
 C         1.329588        -0.123479         0.051274
 C         2.341628         1.075181         0.104413
 C         3.298640        -0.122837         0.124191
 C         2.383799        -0.785383        -1.037440
 O         4.539042        -0.178499         0.750656
 C         4.209179        -0.018940         2.071398
 O         2.846639        -0.391212         2.349136
 C         2.330357        -0.786503         1.160067
 H        -0.283154         0.691724         0.895033
 H        -0.332936         0.691759        -0.832053
 H        -0.660314        -0.925236         0.017978
 H         2.573141         1.767393        -0.709927
 H         2.295677         1.576964         1.084022
 H         2.489166        -0.307880        -2.006510
 H         2.269754        -1.893469        -1.042714
 H         4.816998        -0.603137         2.855502
 H         4.287298         1.131111         2.316468
 H         2.325967        -1.922084         0.891850
