19
Iteration:  4238charge 0 multiplicity 1
 C        -0.174178        -0.033466         0.085546
 C         1.374317        -0.054622         0.034499
 C         2.317242         1.062705         0.103452
 C         3.231452        -0.149654         0.136284
 C         2.492149        -0.764459        -1.044388
 O         4.563924        -0.208157         0.708016
 C         4.269279        -0.207252         2.104397
 O         2.757325        -0.124509         2.357530
 C         2.312176        -0.725556         1.136977
 H        -0.733702         0.151503         0.992485
 H        -0.714568         0.633269        -0.792058
 H        -0.486213        -1.119027        -0.340347
 H         2.533873         1.857562        -0.666394
 H         2.311471         1.662451         1.076384
 H         2.611878        -0.374991        -2.038385
 H         2.420918        -1.931796        -1.014541
 H         4.693213        -1.169672         2.522542
 H         4.890936         0.632219         2.592791
 H         2.374158        -1.886901         1.151697
