19
Iteration:    22
 C        -0.117254        -0.140291         0.003368
 C         1.346914        -0.058099        -0.004515
 C         2.294544         1.160370         0.088659
 C         3.197842        -0.146568         0.195460
 C         2.371356        -0.639777        -1.054119
 O         4.514431        -0.236549         0.606727
 C         4.321252        -0.387443         2.117329
 O         2.934291        -0.068507         2.457322
 C         2.253073        -0.708809         1.222692
 H        -0.433598         0.340850         0.969633
 H        -0.530478         0.379031        -0.781195
 H        -0.484086        -1.154313         0.051919
 H         2.414431         1.748973        -0.840525
 H         2.216205         1.803617         0.966533
 H         2.460021        -0.008677        -1.933489
 H         2.407404        -1.688076        -1.359323
 H         4.611942        -1.381747         2.346650
 H         4.956131         0.341832         2.573115
 H         2.104124        -1.789459         1.370344
