19
Iteration:  4336charge 0 multiplicity 1
 C        -0.083938        -0.082724         0.025030
 C         1.382859        -0.068514         0.120323
 C         2.290627         1.117217         0.077992
 C         3.224283        -0.084133         0.111639
 C         2.460056        -0.764208        -0.994000
 O         4.544848        -0.157819         0.664920
 C         4.249820        -0.332873         2.117243
 O         2.800537        -0.157028         2.395471
 C         2.277759        -0.694433         1.160356
 H        -0.419287         0.823956         0.401815
 H        -0.218474        -0.040665        -1.120179
 H        -0.802805        -0.903922         0.215661
 H         2.216919         1.948033        -0.737455
 H         2.332593         1.705848         1.041089
 H         2.516259        -0.549082        -1.985474
 H         2.450425        -1.862474        -1.092974
 H         4.734877        -1.255776         2.261234
 H         4.811725         0.530411         2.583810
 H         2.146498        -1.779341         1.261856
