19
Iteration:  1554charge 0 multiplicity 1
 C        -0.139195         0.122466         0.107035
 C         1.326678        -0.061739         0.122785
 C         2.386723         1.076437         0.093515
 C         3.195648        -0.178500         0.130122
 C         2.395925        -0.712301        -1.049881
 O         4.511672        -0.367808         0.696781
 C         4.289152         0.089372         2.085599
 O         2.856605        -0.370884         2.324905
 C         2.305998        -0.839829         1.107115
 H        -0.303662         0.574974         1.073006
 H        -0.466031         0.758183        -0.738542
 H        -0.748354        -0.817020         0.089603
 H         2.448816         1.669452        -0.782298
 H         2.425093         1.687382         0.972890
 H         2.459858        -0.274503        -2.007797
 H         2.373939        -1.803496        -1.199549
 H         4.988495        -0.483066         2.734708
 H         4.386258         1.197075         2.337944
 H         2.323995        -1.997003         1.229442
