19
Iteration:  2017
 C        -0.180976        -0.106410         0.050885
 C         1.391746         0.003391         0.130458
 C         2.339008         1.236728        -0.001387
 C         3.268989        -0.181677         0.104604
 C         2.307235        -0.735627        -0.972939
 O         4.640170        -0.188683         0.633538
 C         4.287908        -0.427487         2.131575
 O         2.849518        -0.105632         2.413415
 C         2.289699        -0.702558         1.170354
 H        -0.808592         0.338156         0.854911
 H        -0.579280         0.243551        -0.970207
 H        -0.411462        -1.210043        -0.047327
 H         2.431267         1.760278        -1.053307
 H         2.306233         1.970691         0.796549
 H         2.128938        -0.132073        -1.854497
 H         2.359869        -1.848190        -1.138896
 H         4.498442        -1.391353         2.277595
 H         4.834770         0.295533         2.754193
 H         1.884049        -1.688139         1.483679
