19
Iteration:  1177
 C        -0.109236        -0.211945         0.012711
 C         1.385611         0.097782         0.056022
 C         2.489992         1.230172         0.209501
 C         3.163612        -0.041843         0.183413
 C         2.262349        -0.578782        -0.988691
 O         4.477818        -0.421346         0.630685
 C         4.338325        -0.123401         1.968887
 O         2.874944        -0.355030         2.393350
 C         2.248968        -0.710613         1.166613
 H        -0.590590         0.107188         1.093362
 H        -0.724357         0.335765        -0.765721
 H        -0.246416        -1.292812        -0.282850
 H         2.558078         1.822643        -0.714544
 H         2.471590         1.647884         1.250763
 H         2.488106        -0.198648        -2.074413
 H         2.211094        -1.721388        -1.036240
 H         4.904301        -0.745429         2.736408
 H         4.635841         0.955712         2.235394
 H         2.204302        -1.772454         1.085010
