19
Iteration:  3993
 C        -0.119641        -0.012450        -0.043577
 C         1.336823        -0.124004         0.034384
 C         2.273679         1.183542         0.054046
 C         3.251291        -0.014752         0.151988
 C         2.340592        -0.842577        -0.943938
 O         4.569318        -0.084795         0.722559
 C         4.329107        -0.287662         2.181902
 O         2.869040        -0.264964         2.376556
 C         2.315799        -0.766017         1.133238
 H        -0.631312         0.794535         0.603733
 H        -0.372275         0.361651        -1.016207
 H        -0.582944        -0.937966         0.083100
 H         2.380623         1.686254        -0.949115
 H         2.033358         1.781544         0.956205
 H         2.285665        -0.446656        -1.922277
 H         2.505395        -1.890429        -1.021693
 H         4.603476        -1.396312         2.333762
 H         4.819578         0.574192         2.725967
 H         2.130976        -1.900794         1.023486
