19
Iteration:   403
 C        -0.062933         0.103851         0.102534
 C         1.389155        -0.022809         0.158730
 C         2.389198         1.104638         0.132955
 C         3.275534        -0.202492         0.019330
 C         2.267826        -0.799860        -1.029951
 O         4.531561        -0.283036         0.700573
 C         4.178100         0.109487         2.021278
 O         2.823622        -0.452862         2.421767
 C         2.368827        -0.815859         1.069994
 H        -0.401103         0.496053         1.154217
 H        -0.375416         0.738053        -0.640073
 H        -0.483614        -0.841037        -0.179089
 H         2.449857         1.830859        -0.628966
 H         2.404529         1.622141         1.128152
 H         2.369991        -0.511785        -2.059831
 H         2.267654        -1.841365        -0.974587
 H         4.942490        -0.154977         2.706252
 H         4.118096         1.205829         2.000243
 H         2.270180        -1.850334         1.052248
