19
Iteration:  1420
 C        -0.103418        -0.047203         0.146648
 C         1.356687        -0.115572         0.080062
 C         2.436819         1.169863         0.026596
 C         3.263127        -0.128267         0.085270
 C         2.230252        -0.728713        -1.005748
 O         4.531860        -0.111995         0.739171
 C         4.271502        -0.423623         2.090483
 O         2.763787        -0.143866         2.351826
 C         2.394215        -0.705845         1.112246
 H        -0.427023         0.680598         0.841665
 H        -0.384166         0.309054        -0.843593
 H        -0.593771        -1.000614         0.505685
 H         2.413361         1.724609        -0.903928
 H         2.445948         1.813777         0.854553
 H         2.422811        -0.278624        -1.951392
 H         2.228104        -1.785373        -1.156592
 H         4.505182        -1.465090         2.212501
 H         4.811204         0.372642         2.633548
 H         2.567984        -1.859837         1.140466
