19
Iteration:  4603charge 0 multiplicity 1
 C        -0.095055        -0.014899        -0.006939
 C         1.355812        -0.052181         0.013302
 C         2.362348         1.148379         0.016434
 C         3.233833        -0.094606         0.133284
 C         2.369537        -0.875971        -0.889015
 O         4.525340        -0.080440         0.700555
 C         4.280805        -0.281667         2.099999
 O         2.816653        -0.278358         2.382097
 C         2.332261        -0.670001         1.183685
 H        -0.709731         0.144077         0.956364
 H        -0.306616         0.853740        -0.582806
 H        -0.482116        -0.974773        -0.355331
 H         2.154161         1.714706        -0.984729
 H         2.274653         1.783789         0.950773
 H         2.522816        -0.372028        -1.909062
 H         2.390446        -1.953674        -0.970212
 H         4.544817        -1.393637         2.316298
 H         4.840462         0.467262         2.707898
 H         2.139977        -1.773716         1.155147
