19
Iteration:  4018charge 0 multiplicity 1
 C        -0.134678        -0.064282         0.027145
 C         1.357574        -0.058050         0.093534
 C         2.341142         1.091258         0.035965
 C         3.276515        -0.113301         0.113721
 C         2.436381        -0.782567        -1.018713
 O         4.521504        -0.025137         0.707661
 C         4.260778        -0.390780         2.127235
 O         2.779905        -0.119826         2.421457
 C         2.343185        -0.766455         1.142806
 H        -0.557269         0.398838         0.855649
 H        -0.574617         0.596501        -0.780799
 H        -0.575088        -1.056565         0.012224
 H         2.291354         1.543910        -0.979282
 H         2.362147         1.829640         0.877083
 H         2.597937        -0.226065        -1.971027
 H         2.414158        -1.965664        -1.092668
 H         4.361436        -1.540178         2.123487
 H         4.930516         0.328939         2.745323
 H         2.269685        -1.909526         1.103013
