19
Iteration:  1391
 C        -0.136500         0.094642         0.151431
 C         1.294438        -0.045439         0.072762
 C         2.339412         1.114238         0.012890
 C         3.272537        -0.153747         0.125039
 C         2.434435        -0.829897        -0.982484
 O         4.583871         0.001066         0.622443
 C         4.207455        -0.341088         2.067833
 O         2.872109        -0.323223         2.432704
 C         2.247388        -0.727558         1.137648
 H        -0.399059         0.615480         1.104538
 H        -0.464363         0.645589        -0.799794
 H        -0.834836        -0.847114         0.117746
 H         2.495154         1.637926        -0.960717
 H         2.161480         1.777465         0.868371
 H         2.643860        -0.568791        -2.049266
 H         2.529469        -2.015386        -1.041612
 H         4.727427        -1.375346         2.096481
 H         4.744288         0.361152         2.731508
 H         2.105449        -1.746026         1.244155
