19
Iteration:  3738
 C        -0.124007         0.011289         0.037465
 C         1.340005        -0.147493         0.029362
 C         2.315468         1.057762         0.053325
 C         3.242948        -0.105819         0.095751
 C         2.402797        -0.793032        -1.054692
 O         4.555006        -0.032287         0.752165
 C         4.299540        -0.297247         2.168224
 O         2.838989        -0.215897         2.375400
 C         2.260666        -0.733177         1.175894
 H        -0.465730         0.472374         0.902231
 H        -0.344013         0.581297        -0.753684
 H        -0.560072        -0.992579        -0.084675
 H         2.397887         1.656946        -0.883190
 H         2.141144         1.804453         0.844716
 H         2.492147        -0.300104        -2.042268
 H         2.583963        -1.829584        -0.980464
 H         4.624245        -1.336084         2.217620
 H         4.769465         0.516565         2.729749
 H         2.121292        -1.846103         1.162620
