19
Iteration:  2202
 C        -0.148942         0.149012         0.031140
 C         1.348685        -0.076050         0.188130
 C         2.414413         1.102994         0.160390
 C         3.185354        -0.190344         0.144959
 C         2.279309        -0.850418        -1.045628
 O         4.612348        -0.173178         0.638272
 C         4.274545         0.023421         2.130454
 O         2.892648        -0.385318         2.317792
 C         2.281785        -0.859435         1.130793
 H        -0.666166         0.836353         0.674577
 H        -0.307604         0.511600        -1.008635
 H        -0.653900        -0.786675        -0.120738
 H         2.585843         1.665113        -0.800880
 H         2.474250         1.723670         1.045560
 H         2.427924        -0.466013        -2.070502
 H         2.361105        -1.915716        -1.082000
 H         4.847019        -0.815227         2.693621
 H         4.284865         1.086076         2.437914
 H         1.863688        -1.843330         1.266851
