19
Iteration:  4887charge 0 multiplicity 1
 C        -0.063894        -0.037978         0.025030
 C         1.441399        -0.062739         0.069045
 C         2.376573         1.161503         0.085130
 C         3.243792        -0.128385         0.114739
 C         2.352649        -0.813766        -0.948703
 O         4.517188         0.012970         0.679060
 C         4.212149        -0.345292         2.102370
 O         2.794078        -0.260390         2.361466
 C         2.305832        -0.743076         1.130860
 H        -0.503789         0.947979         0.555571
 H        -0.417948         0.126179        -0.978548
 H        -0.477204        -1.007843         0.449615
 H         2.505564         1.798796        -0.841533
 H         2.259981         1.781939         0.947378
 H         2.359376        -0.576557        -2.006475
 H         2.337555        -1.902350        -0.783758
 H         4.541941        -1.384242         2.190260
 H         4.839077         0.340992         2.885054
 H         2.066975        -1.862461         1.205140
