19
Iteration:  3524charge 0 multiplicity 1
 C        -0.111223        -0.080737         0.015858
 C         1.373070        -0.037765         0.078784
 C         2.436799         1.130998         0.179088
 C         3.256833        -0.191187         0.090639
 C         2.373963        -0.700522        -0.981232
 O         4.490472        -0.370011         0.724374
 C         4.279621         0.081401         2.046736
 O         2.792438        -0.300786         2.382704
 C         2.307508        -0.753706         1.071096
 H        -0.494318        -0.134921         1.016968
 H        -0.521491         0.719153        -0.591821
 H        -0.379863        -1.059309        -0.470150
 H         2.438105         1.789430        -0.687027
 H         2.407736         1.591742         1.148142
 H         2.235559         0.035770        -1.811812
 H         2.392558        -1.725068        -1.173083
 H         4.911702        -0.494189         2.779961
 H         4.253981         1.200362         2.315653
 H         2.144860        -1.923595         0.962979
