19
Iteration:  3144
 C        -0.124664        -0.038609        -0.045443
 C         1.300659        -0.080536         0.059695
 C         2.403544         1.108181         0.070807
 C         3.181939        -0.153342         0.168359
 C         2.324952        -0.730217        -1.039375
 O         4.537232        -0.179918         0.695541
 C         4.272954        -0.117755         2.191192
 O         2.889506        -0.259324         2.392986
 C         2.342672        -0.792441         1.166830
 H        -0.659696         0.210645         0.845778
 H        -0.615474         0.652168        -0.702634
 H        -0.549977        -1.048218        -0.318094
 H         2.396273         1.877971        -0.822163
 H         2.608253         1.718438         1.041209
 H         2.449231        -0.175055        -2.056126
 H         2.316904        -1.817202        -1.250468
 H         4.898840        -1.027806         2.520596
 H         4.616069         0.844482         2.649827
 H         2.201538        -1.894458         1.029158
