19
Iteration:  1734
 C        -0.270563        -0.103993         0.120325
 C         1.301938         0.025564         0.074267
 C         2.430491         1.166293         0.031182
 C         3.316678        -0.070932         0.088289
 C         2.415486        -0.739102        -0.972820
 O         4.582929        -0.258224         0.592508
 C         4.220137        -0.372065         2.208771
 O         2.841913        -0.142464         2.408486
 C         2.281399        -0.682651         1.078694
 H        -0.582625         0.661969         0.847157
 H        -0.861112         0.198921        -0.776373
 H        -0.545293        -1.160496         0.303612
 H         2.447389         1.719110        -0.938272
 H         2.397015         1.896145         0.765927
 H         2.580283        -0.213265        -1.928295
 H         2.504362        -1.854712        -1.053471
 H         4.640890        -1.359065         2.457809
 H         4.856571         0.344783         2.627659
 H         2.331904        -1.836080         1.345838
