19
Iteration:  2968
 C        -0.075692        -0.124943        -0.010543
 C         1.388826         0.089827         0.147256
 C         2.367013         1.143841         0.117104
 C         3.241552        -0.143759         0.075536
 C         2.371582        -0.749098        -1.010261
 O         4.497949        -0.196411         0.683276
 C         4.256312        -0.274293         2.130816
 O         2.805765        -0.207915         2.336172
 C         2.325435        -0.715262         1.192997
 H        -0.648093         0.009120         0.881803
 H        -0.559125         0.372000        -0.935117
 H        -0.217207        -1.247593        -0.203471
 H         2.366506         1.830572        -0.778793
 H         2.474202         1.795362         0.996527
 H         2.359724        -0.234603        -1.904934
 H         2.242824        -1.832454        -1.081496
 H         4.641994        -1.153941         2.627105
 H         4.753985         0.641773         2.487237
 H         2.138803        -1.763265         1.100617
