19
Iteration:   982charge 0 multiplicity 1
 C        -0.277343        -0.037103         0.013867
 C         1.314870        -0.037022         0.147626
 C         2.401089         1.187323         0.088784
 C         3.219897        -0.109464         0.157703
 C         2.252930        -0.676665        -0.977582
 O         4.550588        -0.180233         0.641006
 C         4.359436        -0.243933         2.054769
 O         2.931396        -0.298083         2.403959
 C         2.343389        -0.804753         1.140339
 H        -0.881024         0.537825         0.712208
 H        -0.499264         0.425732        -0.906348
 H        -0.553296        -1.102573        -0.050487
 H         2.532877         1.749690        -0.869835
 H         2.510283         1.830670         0.914476
 H         2.371163        -0.167084        -1.994462
 H         2.435884        -1.742771        -1.139167
 H         4.799356        -1.184330         2.386392
 H         4.670285         0.600503         2.722285
 H         2.444861        -1.976707         1.216706
