19
Iteration:   713charge 0 multiplicity 1
 C        -0.169416        -0.122397         0.040161
 C         1.391260        -0.032044         0.067961
 C         2.331324         1.156283         0.123820
 C         3.220585        -0.196566         0.146282
 C         2.271591        -0.623902        -0.989427
 O         4.572169        -0.210555         0.647982
 C         4.325213        -0.328699         2.102709
 O         2.928705        -0.105266         2.354647
 C         2.286082        -0.765681         1.165227
 H        -0.650265         0.225194         0.887954
 H        -0.578300         0.438015        -0.789590
 H        -0.608902        -1.132549        -0.074303
 H         2.391139         1.484865        -0.896153
 H         2.302891         1.884629         0.913199
 H         2.540697         0.064917        -1.896093
 H         2.194475        -1.712523        -1.332193
 H         4.619713        -1.281541         2.481046
 H         4.685292         0.552341         2.565930
 H         2.129646        -1.851119         1.431899
