19
Iteration:  2284
 C        -0.043504        -0.066262         0.021723
 C         1.406559        -0.098490         0.113157
 C         2.419744         1.134114         0.166684
 C         3.238149        -0.215936         0.162075
 C         2.285352        -0.655794        -1.028138
 O         4.505324        -0.314442         0.694227
 C         4.272376        -0.100193         2.088134
 O         2.821577        -0.116922         2.330926
 C         2.274140        -0.809917         1.080342
 H        -0.312724         0.357663         0.971517
 H        -0.471519         0.465794        -0.770254
 H        -0.457225        -1.061707         0.117899
 H         2.419348         1.733123        -0.768110
 H         2.470606         1.720003         1.140099
 H         2.090453        -0.170881        -1.963148
 H         1.997072        -1.765338        -1.041278
 H         4.823937        -0.887108         2.487769
 H         4.803315         0.788774         2.413357
 H         2.086976        -1.871946         0.974930
