19
Iteration:   784charge 0 multiplicity 1
 C        -0.178192        -0.011332         0.079010
 C         1.349626        -0.090968         0.073884
 C         2.318469         1.190171        -0.089516
 C         3.231272        -0.102021         0.100676
 C         2.344340        -0.738507        -1.046803
 O         4.470902        -0.004065         0.737715
 C         4.363556        -0.448069         2.097932
 O         2.925385        -0.273520         2.498148
 C         2.330421        -0.755555         1.145631
 H        -0.491001         0.765851         0.917347
 H        -0.567568         0.274021        -0.955421
 H        -0.704421        -0.949426         0.433096
 H         2.262493         1.835177        -1.032748
 H         2.586258         1.743322         0.806678
 H         2.166781        -0.269642        -2.001480
 H         2.194057        -1.827053        -1.151046
 H         4.543897        -1.572521         2.216009
 H         5.039476         0.345832         2.607915
 H         2.430911        -1.764614         1.275289
