19
Iteration:  3877charge 0 multiplicity 1
 C        -0.128642         0.058127         0.086922
 C         1.387880        -0.035309         0.024538
 C         2.410382         1.047964         0.112928
 C         3.299370        -0.187885         0.099132
 C         2.358599        -0.797199        -1.049209
 O         4.537495        -0.153912         0.703760
 C         4.155926         0.051371         2.176821
 O         2.872983        -0.379743         2.379801
 C         2.307371        -0.886623         1.072454
 H        -0.584134         0.250912         1.042071
 H        -0.458913         1.026263        -0.524194
 H        -0.656129        -0.868332        -0.392377
 H         2.514357         1.601636        -0.817901
 H         2.428454         1.756643         0.936454
 H         2.337029        -0.267983        -2.008080
 H         2.082281        -1.926389        -1.071935
 H         4.802449        -0.576446         2.743471
 H         4.156552         1.103899         2.407187
 H         2.239625        -1.917936         1.278899
