19
Iteration:  3417
 C        -0.143974        -0.031136         0.029388
 C         1.399573        -0.104312         0.068046
 C         2.329988         1.113862         0.003601
 C         3.266546        -0.105098         0.152407
 C         2.437266        -0.727237        -0.972951
 O         4.491270        -0.117044         0.680489
 C         4.258824        -0.314185         2.139738
 O         2.816175        -0.204710         2.374573
 C         2.366011        -0.742847         1.159993
 H        -0.524042         0.697741         0.703156
 H        -0.589383         0.018123        -0.967898
 H        -0.575718        -0.972589         0.640105
 H         2.194532         1.815790        -0.834038
 H         2.154131         1.723148         0.885650
 H         2.572266        -0.103146        -1.893421
 H         2.274081        -1.776389        -1.263315
 H         4.668508        -1.365341         2.311023
 H         4.679945         0.450491         2.675303
 H         2.172882        -1.745890         1.114541
