19
Iteration:  3564charge 0 multiplicity 1
 C        -0.136728         0.041637         0.028030
 C         1.353836        -0.082423         0.070434
 C         2.356817         1.068445         0.093825
 C         3.284972        -0.146849         0.141717
 C         2.371546        -0.792909        -1.028518
 O         4.552944        -0.195077         0.731968
 C         4.238818         0.036868         2.105209
 O         2.791338        -0.390283         2.387988
 C         2.326258        -0.814264         1.093900
 H        -0.400973         0.662598         0.924393
 H        -0.582953         0.774279        -0.703316
 H        -0.648541        -0.930232        -0.085344
 H         2.591375         1.808587        -0.689819
 H         2.391742         1.496376         1.104505
 H         2.384296        -0.306455        -2.045458
 H         2.366219        -1.871141        -1.227807
 H         5.019365        -0.511518         2.617019
 H         4.381812         1.040709         2.354882
 H         2.354763        -1.875857         0.993134
