19
Iteration:  1376charge 0 multiplicity 1
 C        -0.167516         0.132036         0.063037
 C         1.398791        -0.137569         0.031315
 C         2.308038         1.149957         0.010900
 C         3.201998        -0.054448         0.142990
 C         2.413850        -0.832547        -0.916219
 O         4.516258        -0.078526         0.594602
 C         4.366821        -0.329694         2.064497
 O         2.773063        -0.325529         2.450640
 C         2.366523        -0.759650         1.179551
 H        -0.389693         0.528618         1.059314
 H        -0.449707         0.924088        -0.635388
 H        -0.756283        -0.878099         0.027028
 H         2.265142         1.742415        -0.856162
 H         2.397735         1.730561         0.897596
 H         2.314237        -0.384516        -1.912129
 H         2.366606        -1.882777        -0.885470
 H         4.614981        -1.343280         2.263842
 H         4.819853         0.560775         2.539627
 H         2.438625        -1.891255         1.078157
