19
Iteration:  3895
 C        -0.077416         0.009231         0.066308
 C         1.390487        -0.065371         0.049543
 C         2.423737         1.161526         0.080440
 C         3.222527        -0.228301         0.170559
 C         2.388084        -0.726488        -1.024221
 O         4.536498        -0.248307         0.715211
 C         4.250344         0.106122         2.008578
 O         2.745037        -0.414725         2.387240
 C         2.307488        -0.841493         1.167161
 H        -0.354065         0.209195         1.136878
 H        -0.523808         0.808329        -0.463765
 H        -0.509134        -0.877552        -0.206084
 H         2.576776         1.764338        -0.864135
 H         2.363867         1.647218         1.076483
 H         2.554099        -0.252497        -1.988507
 H         2.402555        -1.791027        -1.360904
 H         4.887245        -0.487346         2.778635
 H         4.069286         1.210410         2.230925
 H         2.078707        -1.958682         1.016413
