19
Iteration:  4890
 C        -0.094027        -0.048389         0.019849
 C         1.444469        -0.062283         0.091222
 C         2.379242         1.166569         0.040212
 C         3.261524        -0.123577         0.129816
 C         2.357028        -0.798495        -0.955989
 O         4.517107         0.010304         0.668613
 C         4.213166        -0.349468         2.104075
 O         2.797878        -0.271376         2.369170
 C         2.315169        -0.744514         1.130057
 H        -0.397521         0.839064         0.530810
 H        -0.542355         0.135371        -0.965614
 H        -0.442307        -0.960699         0.387034
 H         2.504214         1.887057        -0.808113
 H         2.180830         1.821485         0.976955
 H         2.459949        -0.483989        -1.987330
 H         2.240547        -1.964255        -0.677436
 H         4.462147        -1.394010         2.312901
 H         4.792148         0.239866         2.787066
 H         2.098685        -1.754858         1.339112
