19
Iteration:  4828
 C        -0.105400        -0.055059        -0.010802
 C         1.403644        -0.064948         0.076912
 C         2.340525         1.190250         0.102485
 C         3.229720        -0.116886         0.099073
 C         2.420842        -0.727173        -0.986091
 O         4.469358        -0.267025         0.717374
 C         4.283049        -0.177559         2.082264
 O         2.825131        -0.249115         2.373056
 C         2.328279        -0.726798         1.173832
 H        -0.536346         0.411188         0.924611
 H        -0.540593         0.341681        -1.029062
 H        -0.567802        -1.135983        -0.000931
 H         2.270833         1.804755        -0.757919
 H         2.215090         1.758463         1.081351
 H         2.499705        -0.153981        -1.943403
 H         2.340805        -1.824435        -0.989965
 H         4.892060        -1.093933         2.559247
 H         4.663353         0.830848         2.472176
 H         2.157520        -1.884926         1.000600
