19
Iteration:   149charge 0 multiplicity 1
 C        -0.159627         0.005360         0.062722
 C         1.357239        -0.018746         0.069327
 C         2.414848         1.090481         0.192674
 C         3.259234        -0.249569         0.156002
 C         2.323671        -0.626350        -1.002051
 O         4.530986        -0.257955         0.670427
 C         4.227812        -0.016323         2.040555
 O         2.844876        -0.290538         2.347818
 C         2.356485        -0.886524         1.099574
 H        -0.481191         0.606580         0.929130
 H        -0.633844         0.419812        -0.891912
 H        -0.532745        -1.005497         0.022086
 H         2.551586         1.613415        -0.768513
 H         2.422903         1.660852         1.074205
 H         2.466680        -0.005440        -1.856426
 H         2.183773        -1.725047        -1.163560
 H         4.825119        -0.781582         2.670481
 H         4.440543         1.039718         2.305622
 H         2.301957        -1.975602         1.174669
