19
Iteration:   248
 C        -0.105215         0.094990         0.056049
 C         1.386684        -0.111688         0.036254
 C         2.249264         1.121381         0.074850
 C         3.227250        -0.153533         0.129790
 C         2.364253        -0.768202        -0.987418
 O         4.543804        -0.067944         0.636008
 C         4.271479        -0.286952         2.092236
 O         2.818088        -0.227540         2.392217
 C         2.391768        -0.850951         1.187181
 H        -0.361012         0.685587         0.976871
 H        -0.577600         0.629757        -0.832303
 H        -0.569564        -0.861312         0.208490
 H         2.409690         1.687279        -0.844103
 H         2.173671         1.756311         0.897458
 H         2.373863        -0.396692        -1.960496
 H         2.465567        -1.869053        -1.084520
 H         4.664514        -1.336584         2.391110
 H         4.751710         0.468918         2.705680
 H         2.366349        -1.914936         1.234995
