19
Iteration:  1910
 C        -0.171105         0.141579         0.075378
 C         1.411111        -0.008430         0.123828
 C         2.360734         1.104353         0.050863
 C         3.241551        -0.225851         0.151497
 C         2.419013        -0.754215        -0.952558
 O         4.558445        -0.248638         0.661232
 C         4.204858        -0.043343         2.065577
 O         2.874624        -0.357902         2.326438
 C         2.320830        -0.832381         1.132338
 H        -0.557346         0.802257         0.818441
 H        -0.660525         0.511851        -0.858858
 H        -0.753810        -0.747007         0.429641
 H         2.309984         1.544817        -0.896689
 H         2.106223         1.612730         0.905203
 H         2.361723        -0.243309        -1.904915
 H         2.307102        -1.848158        -0.907754
 H         4.926531        -0.895971         2.463849
 H         4.443123         0.955443         2.537610
 H         2.066352        -1.917641         1.059476
