19
Iteration:   820
 C        -0.133939         0.095564        -0.009210
 C         1.376434        -0.097706         0.185256
 C         2.278312         1.138420         0.196279
 C         3.244213        -0.149617         0.075594
 C         2.367863        -0.822817        -0.930790
 O         4.565433        -0.048092         0.603845
 C         4.326141        -0.232842         2.045280
 O         2.849810        -0.279474         2.340057
 C         2.298004        -0.856845         1.139359
 H        -0.510379         0.746108         0.814573
 H        -0.371335         0.676019        -0.892668
 H        -0.770710        -0.915720        -0.065200
 H         2.073445         1.970806        -0.612070
 H         2.341196         1.567340         1.228798
 H         2.275352        -0.502065        -1.981087
 H         2.294138        -1.854577        -0.850442
 H         4.714666        -1.266399         2.430104
 H         4.923632         0.511390         2.604004
 H         2.219378        -1.921276         1.011204
