19
Iteration:   707charge 0 multiplicity 1
 C        -0.184606        -0.099642         0.027986
 C         1.343762        -0.084639         0.086040
 C         2.360178         1.141756         0.136724
 C         3.235228        -0.149266         0.194694
 C         2.245155        -0.629976        -1.010773
 O         4.566133        -0.228467         0.645916
 C         4.318281        -0.266232         2.091934
 O         2.915004        -0.168872         2.340860
 C         2.316939        -0.752223         1.165594
 H        -0.559522         0.371021         1.043469
 H        -0.472606         0.546959        -0.894859
 H        -0.634791        -1.062480        -0.257976
 H         2.450478         1.482022        -0.933511
 H         2.137979         2.016086         0.815213
 H         2.578875        -0.112823        -1.835802
 H         2.247246        -1.703988        -1.171127
 H         4.733737        -1.272633         2.527576
 H         4.857310         0.654908         2.495101
 H         2.259553        -1.820183         1.332620
