19
Iteration:   148charge 0 multiplicity 1
 C        -0.152100         0.009752         0.069735
 C         1.359113        -0.021232         0.073523
 C         2.414428         1.087459         0.193265
 C         3.259304        -0.240007         0.153831
 C         2.323398        -0.634103        -1.003034
 O         4.528010        -0.257329         0.669986
 C         4.227764        -0.016628         2.046890
 O         2.841487        -0.289541         2.337746
 C         2.356996        -0.889928         1.106125
 H        -0.455947         0.597820         0.885977
 H        -0.635922         0.421870        -0.921498
 H        -0.537614        -1.004694         0.023536
 H         2.540752         1.623870        -0.787414
 H         2.418055         1.672861         1.103558
 H         2.440792         0.018168        -1.863687
 H         2.192736        -1.746336        -1.160850
 H         4.818729        -0.785867         2.638839
 H         4.458289         1.036692         2.328702
 H         2.295813        -1.976981         1.158903
