19
Iteration:  1465
 C        -0.160092        -0.144905         0.045169
 C         1.370076        -0.009156         0.083395
 C         2.372012         1.224037         0.094169
 C         3.191365        -0.062448         0.163501
 C         2.422647        -0.697172        -0.985071
 O         4.478612        -0.314322         0.693019
 C         4.271884        -0.342257         2.012956
 O         2.906351        -0.135424         2.361576
 C         2.308711        -0.670144         1.181977
 H        -0.623336         0.426819         0.797538
 H        -0.520304         0.254719        -0.920695
 H        -0.628774        -1.158287         0.296670
 H         2.545482         1.786258        -0.806003
 H         2.376496         1.765186         0.964390
 H         2.402021        -0.295652        -1.969059
 H         2.344811        -1.759726        -1.141234
 H         4.490885        -1.372102         2.281125
 H         4.828995         0.464011         2.557515
 H         2.220474        -1.826985         1.129095
