19
Iteration:  4382
 C        -0.090219        -0.036593         0.072194
 C         1.418790        -0.070137         0.054646
 C         2.414704         1.090345         0.113337
 C         3.267989        -0.209431         0.098982
 C         2.317075        -0.751669        -1.036647
 O         4.540294        -0.242951         0.697100
 C         4.216430        -0.002500         2.163480
 O         2.796379        -0.324343         2.401666
 C         2.263690        -0.680461         1.077553
 H        -0.493938         0.210981         1.103651
 H        -0.455083         0.573561        -0.771480
 H        -0.362238        -1.077748        -0.335018
 H         2.597399         1.724153        -0.801505
 H         2.352670         1.696191         0.995685
 H         2.454570        -0.226920        -1.988444
 H         2.215092        -1.733552        -1.287971
 H         4.780440        -0.747883         2.723642
 H         4.536148         1.040719         2.351878
 H         2.198627        -1.805060         1.123966
