19
Iteration:  1976
 C        -0.225397        -0.028636         0.079456
 C         1.299378        -0.041157         0.113922
 C         2.361707         1.196680         0.104237
 C         3.287565        -0.133818         0.114891
 C         2.461966        -0.811597        -1.012422
 O         4.604245        -0.239517         0.620500
 C         4.270374        -0.291589         2.087734
 O         2.833577        -0.122178         2.332648
 C         2.256105        -0.716965         1.189298
 H        -0.433402         0.302303         1.072337
 H        -0.522589         0.651724        -0.749948
 H        -0.707066        -1.041875        -0.072158
 H         2.307846         1.852496        -0.737197
 H         2.311741         1.722060         1.029554
 H         2.425215        -0.400581        -2.048170
 H         2.556556        -1.918568        -0.934817
 H         4.395531        -1.475820         2.339137
 H         4.895361         0.471643         2.650206
 H         2.141926        -1.786871         1.285267
