19
Iteration:  4206charge 0 multiplicity 1
 C        -0.076020        -0.017631         0.087928
 C         1.428807        -0.125692         0.096515
 C         2.413171         1.080324         0.084338
 C         3.240782        -0.120970         0.138780
 C         2.305757        -0.702692        -1.095301
 O         4.579010        -0.300361         0.711620
 C         4.180648         0.004027         2.110302
 O         2.739178        -0.292177         2.356499
 C         2.320555        -0.763682         1.120987
 H        -0.539208         0.215689         1.003407
 H        -0.239932         0.738640        -0.701626
 H        -0.286741        -1.104832        -0.207037
 H         2.598389         1.629276        -0.868740
 H         2.392736         1.707772         1.014807
 H         2.235765        -0.045046        -1.922575
 H         2.409279        -1.800067        -1.014598
 H         4.804062        -0.668956         2.786553
 H         4.368553         1.128309         2.312859
 H         2.311772        -1.914046         1.197778
