19
Iteration:   772
 C        -0.154521        -0.089133         0.157506
 C         1.341491        -0.009303         0.084822
 C         2.267283         1.183302        -0.060660
 C         3.234988        -0.060636         0.091491
 C         2.344685        -0.740287        -1.039729
 O         4.562190        -0.083186         0.725339
 C         4.283906        -0.521723         2.086978
 O         2.906012        -0.229806         2.443044
 C         2.350906        -0.637251         1.147742
 H        -0.674376         0.723417         0.801280
 H        -0.517540         0.128613        -0.915739
 H        -0.449418        -1.103165         0.354322
 H         2.289047         1.580656        -1.079546
 H         2.217148         1.997680         0.670330
 H         2.416629        -0.200537        -1.963843
 H         2.336439        -1.873575        -1.135876
 H         4.763394        -1.532362         2.210825
 H         4.825221         0.119884         2.862334
 H         2.194252        -1.665822         1.103700
