19
Iteration:  2797
 C        -0.051811         0.004366        -0.008406
 C         1.387817        -0.090386         0.066580
 C         2.378725         1.108636         0.104616
 C         3.224348        -0.204387         0.103151
 C         2.286063        -0.658018        -1.084228
 O         4.531077        -0.218237         0.669669
 C         4.268993        -0.014782         2.144139
 O         2.774743        -0.288737         2.421020
 C         2.350856        -0.899617         1.214037
 H        -0.486236         0.433023         0.909194
 H        -0.282558         0.691783        -0.752621
 H        -0.537519        -0.937275        -0.171328
 H         2.569237         1.726107        -0.755263
 H         2.330826         1.629509         1.007473
 H         2.336762        -0.086240        -2.090976
 H         2.375495        -1.710787        -1.304816
 H         4.864960        -0.854873         2.659320
 H         4.429810         1.003388         2.462785
 H         2.277326        -2.080644         1.322424
