19
Iteration:  2936
 C        -0.202379        -0.057951         0.002097
 C         1.347846        -0.075798         0.037176
 C         2.353716         1.112869         0.102176
 C         3.277041        -0.082417         0.132656
 C         2.388132        -0.722341        -1.035045
 O         4.564062        -0.200969         0.674794
 C         4.287431        -0.225612         2.181991
 O         2.831032        -0.278635         2.370962
 C         2.292882        -0.704441         1.173053
 H        -0.411367         0.590215         0.810031
 H        -0.545171         0.407434        -0.914930
 H        -0.403562        -1.135281         0.205605
 H         2.448410         1.638570        -0.862174
 H         2.263980         1.788569         0.961846
 H         2.292927        -0.112668        -1.875416
 H         2.478788        -1.740553        -1.343649
 H         4.687221        -1.012123         2.753083
 H         4.642670         0.760969         2.426294
 H         2.202599        -1.787689         1.192709
