19
Iteration:  4488charge 0 multiplicity 1
 C        -0.151803        -0.059466        -0.034922
 C         1.392984         0.018030         0.008509
 C         2.313127         1.176992         0.091109
 C         3.219352        -0.136314         0.171315
 C         2.403499        -0.750675        -0.981209
 O         4.508601        -0.276280         0.656456
 C         4.224149        -0.113250         2.193818
 O         2.896300        -0.295262         2.429708
 C         2.361441        -0.789004         1.123801
 H        -0.651696         0.652105         0.507158
 H        -0.488735         0.271915        -1.050364
 H        -0.608104        -0.944662         0.270791
 H         2.488104         1.884853        -0.792736
 H         2.161852         1.706591         1.013190
 H         2.335654        -0.216510        -1.905670
 H         2.149172        -1.920918        -1.001303
 H         4.877041        -0.841838         2.621026
 H         4.647851         0.877425         2.317822
 H         2.374223        -1.827659         0.990477
