19
Iteration:  4863
 C        -0.188518         0.020354        -0.017902
 C         1.376142        -0.131109         0.116873
 C         2.346934         1.100167         0.082547
 C         3.258039        -0.163577         0.120104
 C         2.379299        -0.763019        -1.020318
 O         4.542809        -0.057179         0.736286
 C         4.248013        -0.285257         2.147639
 O         2.837709        -0.200041         2.328510
 C         2.370332        -0.798053         1.133248
 H        -0.504856         1.010409         0.570225
 H        -0.564851         0.219387        -1.046956
 H        -0.692739        -0.880274         0.514665
 H         2.332071         1.775984        -0.789492
 H         2.278966         1.636508         0.995626
 H         2.467528        -0.259605        -2.034244
 H         2.276210        -1.776208        -1.201344
 H         4.639783        -1.318671         2.438082
 H         4.814103         0.589142         2.758661
 H         2.298590        -1.973819         1.226221
