19
Iteration:  4184
 C        -0.182787         0.007450         0.008072
 C         1.446911         0.009768         0.016251
 C         2.399670         1.184687         0.178687
 C         3.255694        -0.261296         0.123184
 C         2.378814        -0.790879        -1.002950
 O         4.542770        -0.262346         0.723673
 C         4.165027         0.093858         2.092760
 O         2.835238        -0.410190         2.327816
 C         2.297297        -0.836455         1.113894
 H        -0.429883         0.442425         0.920444
 H        -0.585699         0.660778        -0.781903
 H        -0.499808        -1.092589         0.095413
 H         2.482262         1.817499        -0.746912
 H         2.583295         1.790308         1.106616
 H         2.620130        -0.210142        -1.817569
 H         2.249946        -1.864516        -0.818463
 H         5.057673        -0.310365         2.669396
 H         4.194914         1.255720         2.188569
 H         2.064718        -1.969434         1.211910
