19
Iteration:  2056charge 0 multiplicity 1
 C        -0.049213         0.036144         0.015149
 C         1.318916        -0.061533         0.069985
 C         2.304419         1.177727         0.050431
 C         3.213755        -0.108741         0.164819
 C         2.353146        -0.844787        -0.946001
 O         4.557051        -0.118061         0.608469
 C         4.296024        -0.370401         2.066882
 O         2.854002        -0.198694         2.406361
 C         2.292767        -0.747852         1.189115
 H        -0.457913         0.806481         0.711010
 H        -0.359686         0.375321        -0.941179
 H        -0.381746        -0.912815         0.411621
 H         2.451818         1.774018        -0.805411
 H         2.181691         1.834049         0.925772
 H         2.213405        -0.502526        -1.980348
 H         2.188384        -1.922835        -1.009776
 H         4.911947        -1.341381         2.493561
 H         4.764191         0.458977         2.621698
 H         2.068077        -1.805532         1.223403
