19
Iteration:   186charge 0 multiplicity 1
 C        -0.061746        -0.032464        -0.037841
 C         1.393197         0.014634         0.123457
 C         2.366869         1.202418         0.157051
 C         3.204677        -0.157132         0.149307
 C         2.330656        -0.667666        -0.933436
 O         4.431307        -0.411348         0.713418
 C         4.235656         0.057694         1.984634
 O         2.952627        -0.433703         2.350461
 C         2.290557        -0.756586         1.149004
 H        -0.617192        -0.090895         1.016056
 H        -0.454146         0.710476        -0.611643
 H        -0.311732        -1.049297        -0.421820
 H         2.491299         1.770545        -0.722358
 H         2.385168         1.800511         1.101419
 H         2.404707        -0.175142        -1.933808
 H         2.298925        -1.733243        -0.975694
 H         5.014014        -0.295549         2.655279
 H         4.271060         1.175125         1.947471
 H         2.170429        -1.878346         1.033808
