19
Iteration:  4370charge 0 multiplicity 1
 C        -0.144188        -0.086084         0.026891
 C         1.349529        -0.021959         0.018496
 C         2.406154         1.129059         0.064994
 C         3.254774        -0.192754         0.156907
 C         2.267011        -0.701435        -1.100134
 O         4.599761        -0.216966         0.779657
 C         4.295265        -0.106592         2.150126
 O         2.800064        -0.225735         2.344007
 C         2.348213        -0.837255         1.150409
 H        -0.564539         0.381399         0.908510
 H        -0.538468         0.581541        -0.793866
 H        -0.600136        -1.109732         0.020351
 H         2.456975         1.731666        -0.905658
 H         2.437968         1.688580         0.990958
 H         2.417533        -0.178430        -1.994784
 H         2.183889        -1.741983        -1.091563
 H         4.839426        -0.821035         2.769059
 H         4.438240         0.928661         2.530097
 H         2.128099        -1.918198         1.189990
