19
Iteration:  4489
 C        -0.153629        -0.059717        -0.038754
 C         1.390635         0.020229         0.002887
 C         2.309772         1.172772         0.077754
 C         3.222232        -0.141122         0.171329
 C         2.398630        -0.742230        -0.970726
 O         4.500767        -0.277392         0.657755
 C         4.239457        -0.121030         2.199457
 O         2.891792        -0.291587         2.431274
 C         2.365519        -0.791773         1.118278
 H        -0.627500         0.650777         0.498605
 H        -0.504403         0.242860        -1.017078
 H        -0.579161        -0.970963         0.295969
 H         2.490467         1.919689        -0.775366
 H         2.153124         1.739952         0.994353
 H         2.329771        -0.183160        -1.904014
 H         2.171489        -1.881639        -1.017457
 H         4.875363        -0.862181         2.650314
 H         4.661566         0.894033         2.319843
 H         2.392990        -1.839315         1.025057
