19
Iteration:  4762charge 0 multiplicity 1
 C        -0.126706         0.085927         0.011159
 C         1.395885        -0.116877         0.042201
 C         2.327348         1.130258         0.178761
 C         3.291766        -0.180775         0.152772
 C         2.432017        -0.711074        -0.989954
 O         4.503033        -0.326411         0.689612
 C         4.205723         0.066295         2.090885
 O         2.861195        -0.332572         2.333268
 C         2.308756        -0.854328         1.125812
 H        -0.525236         0.211274         1.020573
 H        -0.430759         1.014678        -0.662603
 H        -0.659402        -0.898718        -0.276233
 H         2.199680         1.633299        -0.715729
 H         2.080865         1.611747         1.159690
 H         2.400934        -0.253812        -1.970465
 H         2.488048        -1.795894        -1.168678
 H         4.983565        -0.544723         2.661492
 H         4.328042         1.206565         2.192127
 H         2.206804        -2.026333         1.267420
