19
Iteration:  1298
 C        -0.111148        -0.082550         0.048632
 C         1.339949         0.111811         0.108255
 C         2.304327         1.247169         0.133465
 C         3.275666        -0.162138         0.123906
 C         2.322359        -0.633817        -1.026173
 O         4.563745        -0.460145         0.649765
 C         4.255995        -0.092209         2.071666
 O         2.886057        -0.365675         2.381422
 C         2.317685        -0.708843         1.140510
 H        -0.556178         0.406746         1.008933
 H        -0.565697         0.301601        -0.856729
 H        -0.362146        -1.179856         0.273605
 H         2.231258         1.799478        -0.769447
 H         2.244693         1.731424         1.159442
 H         2.339440        -0.166422        -2.049767
 H         2.468136        -1.676348        -1.177091
 H         4.946724        -0.735549         2.639311
 H         4.495712         1.005085         2.274088
 H         2.020828        -1.777964         1.008942
