19
Iteration:  3933charge 0 multiplicity 1
 C        -0.156129        -0.092001        -0.012817
 C         1.397217         0.011160         0.043614
 C         2.348145         1.167161         0.195333
 C         3.205450        -0.176985         0.112050
 C         2.347795        -0.699581        -1.039858
 O         4.580527        -0.370789         0.750281
 C         4.259147         0.048213         2.049750
 O         2.796462        -0.301521         2.317554
 C         2.365789        -0.818149         1.189336
 H        -0.528900         0.520599         0.808556
 H        -0.404010         0.315695        -1.086274
 H        -0.633090        -1.178813         0.078635
 H         2.378601         1.975995        -0.512219
 H         2.412496         1.604567         1.186900
 H         2.530600         0.089056        -1.824989
 H         2.200659        -1.822731        -1.214970
 H         4.889410        -0.553904         2.688047
 H         4.603291         1.051293         2.325361
 H         2.223782        -1.875120         1.229459
