19
Iteration:  4384charge 0 multiplicity 1
 C        -0.066184        -0.027082         0.066723
 C         1.412473        -0.070192         0.059259
 C         2.421058         1.106953         0.110643
 C         3.280625        -0.203452         0.091081
 C         2.342720        -0.764237        -1.015480
 O         4.529946        -0.251851         0.684068
 C         4.187290         0.018339         2.163545
 O         2.797579        -0.336495         2.404764
 C         2.251982        -0.681845         1.087231
 H        -0.501006         0.186817         1.154449
 H        -0.522238         0.563925        -0.731544
 H        -0.376704        -1.052050        -0.367965
 H         2.583826         1.678260        -0.781352
 H         2.350366         1.660585         1.048071
 H         2.405922        -0.168305        -2.019724
 H         2.201592        -1.787615        -1.294902
 H         4.836064        -0.749156         2.635301
 H         4.531836         1.025945         2.295082
 H         2.202976        -1.833719         1.102827
