19
Iteration:  2077charge 0 multiplicity 1
 C        -0.256751         0.103642         0.037343
 C         1.296997        -0.194664         0.089226
 C         2.351273         1.159114         0.033731
 C         3.269885        -0.162028         0.095362
 C         2.386974        -0.754087        -0.931970
 O         4.531840        -0.200382         0.680313
 C         4.292278        -0.212489         2.078735
 O         2.873463        -0.220833         2.373795
 C         2.413338        -0.779822         1.160116
 H        -0.500593         0.942832         0.739343
 H        -0.432925         0.545074        -0.938719
 H        -0.953027        -0.709251         0.307858
 H         2.121544         1.655006        -0.830919
 H         2.332236         1.816172         0.913124
 H         2.410306        -0.272987        -1.933093
 H         2.571307        -1.833146        -1.050343
 H         4.697868        -1.266353         2.403424
 H         4.863499         0.445613         2.727335
 H         2.273096        -1.843754         1.258889
