19
Iteration:  2524charge 0 multiplicity 1
 C        -0.116256        -0.023312        -0.020335
 C         1.414203        -0.020583         0.037925
 C         2.387307         1.180009         0.107813
 C         3.183549        -0.191736         0.139256
 C         2.291008        -0.773684        -0.965758
 O         4.492780        -0.195443         0.704201
 C         4.349456        -0.180687         2.092768
 O         2.885845        -0.248366         2.391923
 C         2.299601        -0.790769         1.122050
 H        -0.624923         0.428029         0.881012
 H        -0.514039         0.461499        -0.905409
 H        -0.585780        -1.067283        -0.055440
 H         2.217323         1.800339        -0.777366
 H         2.272239         1.690682         1.045517
 H         2.542559        -0.195344        -1.795802
 H         2.146349        -1.822822        -1.122265
 H         4.740822        -0.923465         2.762173
 H         4.694346         0.858778         2.370836
 H         2.263991        -1.864111         1.108498
