19
Iteration:  3634
 C        -0.106493        -0.122419        -0.036053
 C         1.376371         0.019947         0.084107
 C         2.341425         1.137057         0.163839
 C         3.198344        -0.139017         0.128100
 C         2.345385        -0.672981        -0.977763
 O         4.566558        -0.264231         0.695839
 C         4.269726        -0.160462         2.157069
 O         2.831339        -0.225791         2.340648
 C         2.324903        -0.754681         1.076177
 H        -0.773162         0.597085         0.404811
 H        -0.532766        -0.041997        -1.011273
 H        -0.293220        -1.121169         0.176139
 H         2.608879         1.697843        -0.724633
 H         2.249104         1.533976         1.176738
 H         2.352221        -0.191420        -1.932629
 H         2.019751        -1.745828        -0.994910
 H         4.838823        -0.833950         2.841802
 H         4.697224         0.824937         2.383293
 H         2.385650        -1.908995         1.164825
