19
Iteration:  4252
 C        -0.170200        -0.104905        -0.028133
 C         1.360283        -0.102067         0.049187
 C         2.402935         1.225807         0.112346
 C         3.257825        -0.089571         0.134914
 C         2.452412        -0.845915        -0.953684
 O         4.535198        -0.132773         0.643880
 C         4.223684        -0.308282         2.111644
 O         2.830247        -0.153875         2.361150
 C         2.259125        -0.710707         1.159786
 H        -0.341142         0.298015         0.987369
 H        -0.464383         0.636802        -0.718785
 H        -0.586391        -1.130415        -0.062230
 H         2.326997         1.753175        -0.817247
 H         2.360186         1.754352         1.015073
 H         2.430629        -0.294116        -1.939407
 H         2.631738        -1.906479        -0.884685
 H         4.553607        -1.349252         2.431860
 H         4.624109         0.521710         2.726952
 H         2.098484        -1.804924         1.356823
