19
Iteration:   902charge 0 multiplicity 1
 C        -0.092431        -0.032945         0.149684
 C         1.398625        -0.031336         0.098549
 C         2.405146         1.205757         0.199149
 C         3.218851        -0.178671         0.114699
 C         2.289448        -0.646398        -1.057853
 O         4.567274        -0.332764         0.669277
 C         4.245422         0.004466         2.016073
 O         2.800354        -0.393356         2.324239
 C         2.327631        -0.815516         1.128585
 H        -0.464611         0.322416         1.129602
 H        -0.518322         0.512131        -0.713788
 H        -0.379975        -1.016209         0.155339
 H         2.578789         1.685479        -0.743382
 H         2.605108         1.877000         1.054012
 H         2.238811        -0.098790        -2.035176
 H         2.150736        -1.827018        -1.115422
 H         4.894795        -0.395493         2.769161
 H         4.307233         1.129970         2.064066
 H         2.107659        -1.989693         0.965397
