19
Iteration:  1614charge 0 multiplicity 1
 C        -0.161548        -0.007935         0.046852
 C         1.366988        -0.017055         0.104242
 C         2.449372         1.132631         0.090502
 C         3.229260        -0.185935         0.084747
 C         2.308021        -0.711358        -1.043781
 O         4.615484        -0.303442         0.697582
 C         4.267304        -0.076182         2.015385
 O         2.807252        -0.291115         2.399837
 C         2.278826        -0.796941         1.220172
 H        -0.534482         0.636965         0.914593
 H        -0.714888         0.493302        -0.772456
 H        -0.500074        -1.049090         0.150476
 H         2.544606         1.805148        -0.828781
 H         2.459753         1.727250         1.013838
 H         2.384964        -0.079509        -1.971580
 H         2.268765        -1.802183        -1.110985
 H         4.868296        -0.721659         2.644551
 H         4.406614         0.924129         2.282421
 H         2.110963        -1.819403         1.116701
