19
Iteration:   527
 C        -0.132428        -0.078776        -0.027059
 C         1.378053        -0.021669         0.086248
 C         2.277620         1.172269         0.047175
 C         3.174810        -0.142362         0.200676
 C         2.373399        -0.840749        -0.847366
 O         4.571308         0.011283         0.653199
 C         4.321895        -0.553325         1.936261
 O         2.887015        -0.096964         2.389847
 C         2.280893        -0.655416         1.242361
 H        -0.536108         0.304094         0.898009
 H        -0.418963         0.672223        -0.908520
 H        -0.553047        -1.193146        -0.093026
 H         2.312177         1.809275        -0.857672
 H         2.315155         1.694615         0.951461
 H         2.535953        -0.549771        -1.937367
 H         2.371097        -1.905468        -0.871692
 H         4.342062        -1.719804         1.863343
 H         4.986718         0.076892         2.607466
 H         2.136984        -1.702872         1.217823
