19
Iteration:  2660charge 0 multiplicity 1
 C        -0.259106        -0.004315         0.004725
 C         1.420794        -0.111441         0.042667
 C         2.399414         1.131194         0.032964
 C         3.241191        -0.048066         0.161899
 C         2.377886        -0.745699        -0.983643
 O         4.526284        -0.258568         0.693749
 C         4.277168        -0.119108         2.148131
 O         2.852119        -0.284665         2.399273
 C         2.278795        -0.794508         1.181221
 H        -0.681083         0.284667         0.990834
 H        -0.405540         0.697228        -0.884136
 H        -0.595786        -0.976353        -0.293213
 H         2.468569         1.744870        -0.963843
 H         2.431331         1.764186         0.999857
 H         2.324833        -0.031837        -1.840015
 H         2.417063        -1.867168        -1.208700
 H         4.860922        -1.027071         2.380452
 H         4.806352         0.895634         2.506780
 H         2.396369        -1.836333         0.988265
