19
Iteration:  3039
 C        -0.065391         0.018173        -0.063829
 C         1.384068        -0.086811         0.094396
 C         2.333708         1.094502         0.079325
 C         3.238668        -0.114363         0.159437
 C         2.346613        -0.793210        -0.916812
 O         4.511853        -0.024159         0.645208
 C         4.255786        -0.305106         2.086920
 O         2.776112        -0.262001         2.377359
 C         2.358253        -0.763683         1.198798
 H        -0.379083         0.631636         0.925182
 H        -0.230382         0.470349        -1.119514
 H        -0.408998        -1.055935         0.093122
 H         2.369180         1.622699        -0.859350
 H         2.305859         1.898150         0.844281
 H         2.331450        -0.214304        -1.885987
 H         2.295369        -1.931463        -0.892563
 H         4.676963        -1.310297         2.265479
 H         4.718330         0.435397         2.766575
 H         2.402848        -1.898066         1.058368
