19
Iteration:  4629charge 0 multiplicity 1
 C        -0.159936        -0.072003        -0.051328
 C         1.342264        -0.072335         0.071480
 C         2.397445         1.184994         0.126508
 C         3.240647        -0.157083         0.139695
 C         2.305055        -0.751859        -0.981374
 O         4.544853        -0.173043         0.681875
 C         4.279879        -0.205956         2.181875
 O         2.851753        -0.152404         2.358671
 C         2.348309        -0.836698         1.132693
 H        -0.758159         0.256802         0.771933
 H        -0.333166         0.740862        -0.835791
 H        -0.534918        -1.055854        -0.306320
 H         2.483643         1.663865        -0.787004
 H         2.383743         1.877623         0.909563
 H         2.283536        -0.291958        -1.873413
 H         2.422743        -1.817411        -1.125489
 H         4.618749        -1.217616         2.461625
 H         4.836860         0.594579         2.656388
 H         2.122270        -1.950505         1.261404
