19
Iteration:  1803
 C        -0.275406         0.175281         0.008782
 C         1.373422        -0.086114         0.105566
 C         2.337622         1.078316         0.083666
 C         3.225367        -0.152291         0.156503
 C         2.430880        -0.810372        -0.963953
 O         4.516153        -0.216835         0.725043
 C         4.341877        -0.156959         2.054815
 O         2.907258        -0.301483         2.350689
 C         2.326201        -0.793281         1.105941
 H        -0.576071         0.593492         0.941474
 H        -0.695425         0.870889        -0.760364
 H        -0.714967        -0.847654        -0.163935
 H         2.244489         1.678533        -0.857628
 H         2.437784         1.777331         0.995223
 H         2.354588        -0.368064        -1.980852
 H         2.361452        -1.926931        -0.886908
 H         4.917192        -0.816905         2.613658
 H         4.589873         0.866872         2.394139
 H         2.105816        -1.937994         1.092580
