19
Iteration:  4833charge 0 multiplicity 1
 C        -0.111347        -0.027408        -0.038320
 C         1.386584        -0.100207         0.074229
 C         2.313159         1.175873         0.086630
 C         3.219818        -0.089461         0.141302
 C         2.414412        -0.715665        -0.986510
 O         4.534115        -0.249994         0.674321
 C         4.276994        -0.215377         2.146420
 O         2.834634        -0.230024         2.399018
 C         2.302080        -0.762693         1.154166
 H        -0.521111         0.452036         0.890610
 H        -0.537554         0.338326        -0.898544
 H        -0.491109        -1.011517         0.218834
 H         2.268972         1.759711        -0.887590
 H         2.131973         1.617921         1.024484
 H         2.522075        -0.235519        -1.959601
 H         2.306178        -1.785938        -1.260431
 H         4.781471        -0.998770         2.545217
 H         4.697826         0.812908         2.401009
 H         2.236361        -1.792439         1.034448
