19
Iteration:   532charge 0 multiplicity 1
 C        -0.131164        -0.098883        -0.028560
 C         1.352598        -0.022561         0.105002
 C         2.276019         1.149488         0.026100
 C         3.217713        -0.129812         0.147382
 C         2.400654        -0.826361        -0.860727
 O         4.578094         0.009124         0.639237
 C         4.273989        -0.569081         1.959636
 O         2.893000        -0.108250         2.393554
 C         2.280906        -0.618714         1.241493
 H        -0.557219         0.370897         0.899535
 H        -0.323511         0.596670        -0.762476
 H        -0.511974        -1.024039        -0.119032
 H         2.249184         1.843614        -0.816634
 H         2.385771         1.635240         1.075147
 H         2.315014        -0.449260        -1.854543
 H         2.331921        -1.964809        -0.680486
 H         4.436720        -1.618728         1.918884
 H         4.804105         0.046462         2.627507
 H         2.201344        -1.785526         1.316306
