19
Iteration:  2586charge 0 multiplicity 1
 C        -0.146911        -0.000596         0.042788
 C         1.333384        -0.068855         0.042721
 C         2.305177         1.160653         0.107456
 C         3.220257        -0.152703         0.151786
 C         2.375146        -0.731021        -1.021885
 O         4.607128        -0.259557         0.737153
 C         4.274209        -0.191127         2.160596
 O         2.835282        -0.222132         2.314066
 C         2.329742        -0.772108         1.118367
 H        -0.384556         0.619170         0.859464
 H        -0.551327         0.358336        -0.924030
 H        -0.266287        -1.032525         0.335150
 H         2.225141         1.774531        -0.777474
 H         2.010461         1.689242         1.024924
 H         2.361501        -0.111668        -1.950630
 H         2.454571        -1.821191        -1.372671
 H         4.930783        -0.927694         2.645362
 H         4.657787         0.780585         2.248003
 H         2.106811        -1.897484         1.086509
