19
Iteration:  3641charge 0 multiplicity 1
 C        -0.118757        -0.145455        -0.022959
 C         1.362149        -0.009231         0.074135
 C         2.347423         1.176001         0.171935
 C         3.264987        -0.151221         0.152000
 C         2.318026        -0.686542        -1.020859
 O         4.565704        -0.298333         0.709666
 C         4.262427        -0.168600         2.082653
 O         2.784226        -0.213383         2.354368
 C         2.364809        -0.704746         1.164658
 H        -0.765417         0.599548         0.607465
 H        -0.284310         0.023292        -1.176583
 H        -0.304851        -1.262125         0.136315
 H         2.283779         1.866272        -0.718463
 H         2.406288         1.738895         1.126558
 H         2.437023        -0.156900        -2.025394
 H         2.259185        -1.759597        -1.037241
 H         4.786874        -0.996236         2.556439
 H         4.563641         0.810685         2.447731
 H         2.319158        -1.741895         1.057551
