19
Iteration:   362
 C        -0.168523         0.095446         0.008916
 C         1.342041        -0.067647         0.071576
 C         2.317234         1.098816         0.072907
 C         3.171983        -0.154308         0.114831
 C         2.337991        -0.811342        -1.075035
 O         4.510019        -0.183619         0.654780
 C         4.331383        -0.146794         2.111027
 O         2.915999        -0.268084         2.484563
 C         2.350027        -0.798408         1.196846
 H        -0.616586         0.379229         0.982289
 H        -0.497193         0.739687        -0.819773
 H        -0.571269        -0.910734        -0.386099
 H         2.200397         1.618652        -0.838534
 H         2.487590         1.671406         1.003529
 H         2.418688        -0.193588        -2.010198
 H         2.377091        -1.863777        -1.214120
 H         5.008416        -1.030673         2.439678
 H         4.793969         0.779012         2.597214
 H         2.309653        -1.894503         1.222502
