19
Iteration:  3230
 C        -0.157963        -0.052748         0.037363
 C         1.468117        -0.012382         0.121718
 C         2.412477         1.112068         0.170002
 C         3.278076        -0.191263         0.145317
 C         2.376193        -0.671362        -1.012189
 O         4.499694        -0.329021         0.702698
 C         4.155397         0.041118         2.038310
 O         2.790516        -0.333352         2.356270
 C         2.361115        -0.790420         1.052651
 H        -0.576939         0.532854         0.792707
 H        -0.390691         0.110667        -0.991535
 H        -0.415190        -1.106671         0.287753
 H         2.593820         1.786741        -0.757725
 H         2.403784         1.795043         1.092699
 H         2.295225         0.066332        -1.909541
 H         2.282831        -1.781168        -1.100736
 H         4.845519        -0.570026         2.660451
 H         4.221499         1.086106         2.277032
 H         2.289040        -1.893718         1.280315
