19
Iteration:  1415charge 0 multiplicity 1
 C        -0.118600        -0.010426         0.154499
 C         1.380122        -0.081721         0.071647
 C         2.423131         1.159493         0.020264
 C         3.223908        -0.142868         0.091289
 C         2.287707        -0.758382        -0.986984
 O         4.495726        -0.070276         0.763740
 C         4.312574        -0.438927         2.079491
 O         2.777765        -0.151323         2.317875
 C         2.388156        -0.741633         1.114934
 H        -0.472264         0.697197         0.983801
 H        -0.507400         0.244541        -0.852925
 H        -0.648797        -0.921031         0.370253
 H         2.282633         1.627312        -0.996629
 H         2.554909         1.877697         0.953459
 H         2.421275        -0.275662        -2.010808
 H         2.221273        -1.867011        -1.234619
 H         4.651275        -1.507738         2.399584
 H         4.803378         0.344328         2.650405
 H         2.465295        -1.834041         1.105133
