19
Iteration:  1378charge 0 multiplicity 1
 C        -0.176792         0.124305         0.089810
 C         1.406800        -0.133430         0.021055
 C         2.315238         1.139991         0.020391
 C         3.208061        -0.064411         0.142852
 C         2.421170        -0.840265        -0.923522
 O         4.532160        -0.057391         0.578014
 C         4.342000        -0.339365         2.050932
 O         2.773417        -0.331577         2.473127
 C         2.352253        -0.743949         1.164614
 H        -0.399752         0.609459         1.036448
 H        -0.456682         0.941205        -0.657344
 H        -0.815614        -0.906515         0.006366
 H         2.269355         1.724183        -0.872585
 H         2.400687         1.721395         0.847118
 H         2.417348        -0.333060        -1.893040
 H         2.381478        -1.975424        -0.844426
 H         4.626752        -1.369539         2.320174
 H         4.793596         0.542724         2.577008
 H         2.381924        -1.787008         1.081508
