19
Iteration:   797
 C        -0.149663         0.054693         0.034785
 C         1.351993        -0.090811         0.063136
 C         2.372986         1.102912         0.073841
 C         3.195381        -0.118148         0.143889
 C         2.275231        -0.805581        -0.969425
 O         4.507630         0.049877         0.669639
 C         4.304276        -0.345608         2.067882
 O         2.929755        -0.305022         2.393276
 C         2.340763        -0.787214         1.177416
 H        -0.368055         0.859911         0.818086
 H        -0.583248         0.446321        -0.891012
 H        -0.698763        -0.970811         0.293545
 H         2.435913         1.617681        -0.998777
 H         2.167057         1.845662         0.852381
 H         2.409151        -0.274885        -1.924457
 H         2.377286        -1.826118        -1.046698
 H         4.725446        -1.436841         2.098362
 H         4.945811         0.197207         2.852403
 H         2.214468        -1.834450         1.057951
