19
Iteration:  1994
 C        -0.096404        -0.070499         0.075650
 C         1.383482        -0.076507         0.042271
 C         2.304752         1.151456         0.088278
 C         3.158826        -0.063901         0.138750
 C         2.410908        -0.739618        -0.944991
 O         4.464460        -0.285588         0.682322
 C         4.288585        -0.441444         2.079714
 O         2.880259        -0.031839         2.346237
 C         2.361638        -0.648583         1.105599
 H        -0.510344         0.316023         1.064723
 H        -0.536012         0.493825        -0.778303
 H        -0.401588        -1.111248        -0.071977
 H         2.337184         1.835269        -0.872403
 H         2.261789         1.790603         0.983090
 H         2.466162        -0.309913        -1.918075
 H         2.216032        -1.847082        -0.964676
 H         4.571686        -1.360444         2.375980
 H         4.756988         0.341440         2.637113
 H         2.494419        -1.735680         1.276159
