19
Iteration:  4746charge 0 multiplicity 1
 C        -0.109600         0.098116         0.030271
 C         1.369599        -0.119093         0.078240
 C         2.280370         1.098032         0.179946
 C         3.189198        -0.163852         0.112070
 C         2.452602        -0.787126        -0.992046
 O         4.626062        -0.244807         0.675507
 C         4.224501         0.030583         2.007727
 O         2.766402        -0.386355         2.408366
 C         2.332319        -0.817952         1.106737
 H        -0.446649         0.610778         0.973964
 H        -0.211588         0.900447        -0.673773
 H        -0.716199        -0.742174        -0.104756
 H         2.515570         1.892702        -0.688553
 H         2.340362         1.540477         1.159032
 H         2.651148        -0.342977        -2.030574
 H         2.366601        -1.928552        -1.120318
 H         4.799235        -0.439131         2.845963
 H         4.087225         1.056496         2.167930
 H         2.380188        -1.869762         1.067363
