19
Iteration:  4726
 C        -0.100463         0.088877         0.019339
 C         1.413787        -0.081766         0.062743
 C         2.398877         1.075120         0.136876
 C         3.289792        -0.196844         0.148027
 C         2.331979        -0.751816        -1.021069
 O         4.497190        -0.169787         0.727271
 C         4.215159         0.081026         2.093884
 O         2.819945        -0.421655         2.353827
 C         2.326351        -0.895282         1.113095
 H        -0.358873         0.748990         0.859975
 H        -0.576682         0.600290        -0.944309
 H        -0.630017        -0.853482         0.126507
 H         2.419308         1.741169        -0.763317
 H         2.451055         1.755755         0.951883
 H         2.195019        -0.270655        -1.997644
 H         2.414284        -1.910458        -1.064751
 H         5.009016        -0.621453         2.669736
 H         4.333276         1.096909         2.393792
 H         2.078770        -2.008157         1.051569
