19
Iteration:  1922
 C        -0.145305         0.150108         0.096073
 C         1.318155        -0.031521         0.096158
 C         2.345665         1.107952         0.049028
 C         3.313982        -0.166103         0.106487
 C         2.253845        -0.848131        -0.955048
 O         4.598168        -0.175345         0.647788
 C         4.272864        -0.113747         2.171795
 O         2.820610        -0.379190         2.363243
 C         2.350346        -0.788595         1.070372
 H        -0.437471         0.870913         0.810807
 H        -0.363507         0.484579        -0.932883
 H        -0.578668        -0.870982         0.175216
 H         2.399554         1.729137        -0.796659
 H         2.462139         1.801894         0.852113
 H         2.354297        -0.444130        -1.981880
 H         2.216209        -1.939378        -1.054347
 H         4.861074        -0.855960         2.777167
 H         4.505723         0.950731         2.424634
 H         2.279650        -1.922287         1.144727
