19
Iteration:  3198
 C        -0.163030         0.012591        -0.033057
 C         1.350290        -0.118997         0.039439
 C         2.359492         1.119311         0.193900
 C         3.264221        -0.199256         0.155875
 C         2.376951        -0.743938        -1.047716
 O         4.523041        -0.216194         0.737069
 C         4.248685         0.024161         2.076077
 O         2.867931        -0.348705         2.385760
 C         2.364075        -0.759793         1.112360
 H        -0.476867         0.516256         0.850107
 H        -0.473353         0.716569        -0.782561
 H        -0.793340        -0.912815        -0.073454
 H         2.515829         1.566863        -0.860147
 H         2.358459         1.529920         1.264513
 H         2.195752        -0.301989        -2.150520
 H         2.248480        -1.842722        -1.237992
 H         4.955269        -0.714636         2.593357
 H         4.421564         1.031455         2.491591
 H         2.102631        -1.907249         1.193641
