19
Iteration:  1019
 C        -0.086841        -0.159087         0.094431
 C         1.375622        -0.009572         0.090597
 C         2.306978         1.295441         0.237753
 C         3.186340        -0.101636         0.119212
 C         2.375576        -0.693955        -0.993316
 O         4.490980        -0.316723         0.570549
 C         4.241108        -0.368384         2.053073
 O         2.921726        -0.099190         2.360981
 C         2.305704        -0.687992         1.131529
 H        -0.722589        -0.091767         0.974117
 H        -0.445122         0.323757        -0.878113
 H        -0.235190        -1.307772        -0.192404
 H         2.262591         1.972076        -0.607807
 H         2.389008         1.858014         1.246991
 H         2.481010        -0.205446        -1.866933
 H         2.505979        -1.731533        -1.049449
 H         4.565017        -1.417432         2.361942
 H         5.040087         0.291704         2.391190
 H         2.014971        -1.668669         1.128584
