19
Iteration:  4213
 C        -0.042131        -0.051629         0.075904
 C         1.436403        -0.147428         0.058003
 C         2.361511         1.110896         0.104039
 C         3.254941        -0.154504         0.111260
 C         2.299715        -0.694794        -1.058830
 O         4.575465        -0.296251         0.722580
 C         4.167301        -0.055312         2.170281
 O         2.792693        -0.223649         2.311024
 C         2.305619        -0.785202         1.152552
 H        -0.534898         0.222115         1.084284
 H        -0.506864         0.780825        -0.686750
 H        -0.606899        -0.953771        -0.264944
 H         2.478498         1.661419        -0.863426
 H         2.408441         1.951573         0.860823
 H         2.339523         0.020336        -1.913198
 H         2.536109        -1.801569        -1.258424
 H         4.865524        -0.673613         2.702105
 H         4.460961         0.963696         2.435786
 H         2.182618        -1.868427         1.222366
