19
Iteration:  2204
 C        -0.160663         0.152188         0.033245
 C         1.354615        -0.072182         0.174176
 C         2.405551         1.087088         0.143814
 C         3.220427        -0.177090         0.112720
 C         2.265494        -0.841741        -1.034318
 O         4.608220        -0.166047         0.637077
 C         4.286142         0.008210         2.145089
 O         2.882437        -0.395441         2.345149
 C         2.281165        -0.861600         1.140746
 H        -0.617823         0.815636         0.646898
 H        -0.306214         0.493761        -1.006297
 H        -0.693867        -0.786323        -0.118580
 H         2.567289         1.687196        -0.853379
 H         2.490764         1.737484         1.084626
 H         2.437369        -0.462963        -2.077458
 H         2.353309        -1.920472        -1.069352
 H         4.859183        -0.737852         2.666134
 H         4.312548         1.114670         2.398999
 H         1.832557        -1.846464         1.244010
