19
Iteration:    64charge 0 multiplicity 1
 C        -0.053958        -0.132261        -0.021853
 C         1.374370        -0.006055         0.073098
 C         2.341053         1.231559         0.029545
 C         3.217649        -0.034180         0.125159
 C         2.242381        -0.782726        -0.857518
 O         4.572954        -0.048611         0.593154
 C         4.230770        -0.560509         2.107068
 O         2.876606        -0.150890         2.400450
 C         2.339257        -0.662023         1.206236
 H        -0.699097         0.275065         0.907679
 H        -0.386280         0.271481        -0.892202
 H        -0.285686        -1.185240         0.016308
 H         2.352503         1.725427        -0.966917
 H         2.354242         1.809425         0.924582
 H         2.213693        -0.380335        -1.829772
 H         2.317727        -1.892043        -0.813647
 H         4.306378        -1.647191         2.139140
 H         4.895769         0.051895         2.702629
 H         2.355967        -1.807178         1.187500
