19
Iteration:   212charge 0 multiplicity 1
 C        -0.161072         0.068440        -0.041699
 C         1.349580        -0.085888         0.142545
 C         2.360055         1.084712         0.188318
 C         3.259421        -0.204123         0.104534
 C         2.293802        -0.729079        -0.991624
 O         4.610203        -0.239053         0.609677
 C         4.280137        -0.002190         2.054987
 O         2.820476        -0.351595         2.414992
 C         2.345021        -0.796390         1.193253
 H        -0.645077         0.156966         0.871528
 H        -0.522640         0.954663        -0.805241
 H        -0.539118        -0.891206        -0.491158
 H         2.440298         1.730117        -0.811147
 H         2.407976         1.665410         1.187163
 H         2.135706        -0.024827        -1.893308
 H         2.467632        -1.891335        -1.041434
 H         4.855598        -0.775540         2.573924
 H         4.583678         1.034339         2.269848
 H         2.118782        -1.884929         1.158119
