19
Iteration:  4929
 C        -0.110902        -0.134843        -0.046601
 C         1.357107        -0.057139         0.080922
 C         2.276072         1.222943         0.002915
 C         3.267970        -0.062735         0.168250
 C         2.389193        -0.705968        -1.000636
 O         4.526612        -0.220885         0.729595
 C         4.262678        -0.420812         2.159625
 O         2.907814        -0.103104         2.370244
 C         2.290289        -0.704229         1.197951
 H        -0.544575         0.199505         0.955351
 H        -0.474003         0.490672        -0.837571
 H        -0.615806        -1.162744        -0.054153
 H         2.305799         1.750993        -0.951875
 H         2.149897         1.809460         0.838588
 H         2.427823        -0.310218        -2.035477
 H         2.323706        -1.721755        -1.158446
 H         4.587652        -1.463217         2.389989
 H         4.881961         0.430671         2.581724
 H         2.135808        -1.819963         1.144265
