19
Iteration:  1572
 C        -0.144267         0.035202         0.186348
 C         1.437084        -0.035032         0.072699
 C         2.431678         1.195169         0.143168
 C         3.310836        -0.245543         0.119771
 C         2.315723        -0.722413        -1.032684
 O         4.593345        -0.381756         0.715592
 C         4.202643         0.026023         1.954107
 O         2.752771        -0.365978         2.390509
 C         2.310498        -0.784948         1.083983
 H        -0.517740         0.699431         0.962199
 H        -0.546452         0.442114        -0.754006
 H        -0.567742        -0.997484         0.118538
 H         2.519332         1.909588        -0.816461
 H         2.342170         1.796230         1.058438
 H         2.353317        -0.099798        -1.975087
 H         2.188913        -1.826982        -1.178107
 H         4.940220        -0.245001         2.742343
 H         4.223171         1.141562         1.925971
 H         2.074464        -1.837067         1.106632
