19
Iteration:  2730charge 0 multiplicity 1
 C        -0.144305        -0.053810         0.010999
 C         1.407063        -0.053378         0.136546
 C         2.358574         1.148387         0.012496
 C         3.206670        -0.178650         0.165947
 C         2.395741        -0.632240        -1.027044
 O         4.577511        -0.241805         0.682216
 C         4.250218        -0.068624         2.176568
 O         2.840655        -0.344579         2.353526
 C         2.279793        -0.782312         1.133860
 H        -0.600343         0.665433         0.636259
 H        -0.415849         0.271800        -0.934094
 H        -0.643707        -1.016062         0.241492
 H         2.400307         1.706888        -0.876460
 H         2.350299         1.662972         0.923901
 H         2.368398        -0.075135        -1.974393
 H         2.393181        -1.750309        -1.137398
 H         4.747943        -0.997161         2.593180
 H         4.600191         0.873657         2.556834
 H         1.981563        -1.859123         1.301104
