19
Iteration:  2914charge 0 multiplicity 1
 C        -0.086434         0.021379         0.009395
 C         1.376770        -0.123522         0.118543
 C         2.273720         1.228091         0.166754
 C         3.259976        -0.168327         0.162873
 C         2.421301        -0.761142        -1.041387
 O         4.508698        -0.180096         0.694545
 C         4.240586        -0.144383         2.122457
 O         2.845435        -0.256291         2.343002
 C         2.291129        -0.890952         1.106999
 H        -0.219043         0.826414         0.701710
 H        -0.251027         0.388403        -1.012753
 H        -0.546444        -0.951049         0.337100
 H         2.263660         1.689814        -0.839672
 H         2.141519         2.029807         0.887282
 H         2.631605        -0.366389        -1.974964
 H         2.170863        -1.804885        -1.139663
 H         4.734322        -0.993728         2.513524
 H         4.573755         0.790407         2.563159
 H         2.421599        -1.906355         0.833930
