19
Iteration:  1382
 C        -0.187638         0.100455         0.123598
 C         1.394995        -0.114338         0.019404
 C         2.325931         1.115020         0.024795
 C         3.226800        -0.090190         0.139149
 C         2.427116        -0.855787        -0.940190
 O         4.559136        -0.026616         0.564768
 C         4.293876        -0.347555         2.032828
 O         2.787684        -0.337567         2.495819
 C         2.321484        -0.707308         1.142834
 H        -0.405874         0.707011         1.040460
 H        -0.453669         0.837239        -0.662722
 H        -0.801016        -0.742859        -0.022636
 H         2.305731         1.705103        -0.954411
 H         2.359856         1.829969         0.950059
 H         2.590778        -0.318910        -1.899234
 H         2.432426        -1.985264        -0.841830
 H         4.679048        -1.356876         2.376743
 H         4.742736         0.429687         2.639988
 H         2.282855        -1.823726         1.107438
