19
Iteration:  4096charge 0 multiplicity 1
 C        -0.096323        -0.050473        -0.034879
 C         1.365523        -0.014356         0.034522
 C         2.335806         1.134018         0.106493
 C         3.247890        -0.165143         0.217201
 C         2.405069        -0.710012        -0.969704
 O         4.500130        -0.205155         0.660479
 C         4.262614        -0.184065         2.077390
 O         2.850771        -0.189932         2.411014
 C         2.276487        -0.831005         1.149627
 H        -0.642546         0.382126         0.705640
 H        -0.498163         0.316684        -0.975636
 H        -0.410650        -1.111605        -0.015898
 H         2.522291         1.789931        -0.740622
 H         2.211177         1.827171         0.951229
 H         2.496060        -0.262978        -1.997704
 H         2.357902        -1.850964        -1.023759
 H         4.861557        -1.015607         2.500412
 H         4.584151         0.726352         2.621258
 H         2.251844        -1.966596         1.080247
