19
Iteration:  4397charge 0 multiplicity 1
 C        -0.087542        -0.017889         0.014074
 C         1.432534         0.010732         0.061458
 C         2.434704         1.164681         0.079382
 C         3.237139        -0.157370         0.140949
 C         2.438140        -0.763927        -0.969800
 O         4.510791        -0.299328         0.648953
 C         4.130616         0.034642         2.053789
 O         2.803955        -0.354645         2.393257
 C         2.299303        -0.858062         1.153223
 H        -0.408019         0.077697         1.140965
 H        -0.498418         0.909192        -0.416244
 H        -0.510088        -1.009775        -0.218554
 H         2.418425         1.866218        -0.712462
 H         2.508859         1.789819         1.007389
 H         2.337412        -0.250110        -2.004855
 H         2.406559        -1.921368        -0.903529
 H         4.876593        -0.436751         2.765707
 H         4.046878         1.096760         2.280369
 H         2.082720        -1.964282         1.198105
