19
Iteration:  4518charge 0 multiplicity 1
 C        -0.158577        -0.178887         0.036369
 C         1.395497         0.003926         0.101449
 C         2.370013         1.173199         0.069518
 C         3.196773        -0.131013         0.144042
 C         2.437708        -0.704387        -1.051626
 O         4.613097        -0.211707         0.706082
 C         4.275564        -0.274202         2.122174
 O         2.819242        -0.202339         2.373909
 C         2.232413        -0.700390         1.144773
 H        -0.701208         0.759969         0.502318
 H        -0.395509         0.061100        -1.110725
 H        -0.629781        -1.124330         0.356849
 H         2.497209         1.844789        -0.734290
 H         2.306134         1.899660         0.852999
 H         2.248649        -0.147105        -1.922049
 H         2.251543        -1.824451        -1.228184
 H         4.592697        -1.222306         2.648333
 H         4.712435         0.624055         2.519057
 H         2.126826        -1.846515         1.252231
