19
Iteration:  2992charge 0 multiplicity 1
 C        -0.156232        -0.116516        -0.028838
 C         1.368238        -0.081340         0.013561
 C         2.336690         1.173194         0.081465
 C         3.261542        -0.109015         0.154639
 C         2.362535        -0.684746        -0.952194
 O         4.551761        -0.191462         0.665093
 C         4.270498        -0.303427         2.133795
 O         2.843362        -0.139567         2.385884
 C         2.331699        -0.796144         1.197409
 H        -0.684752         0.230880         0.933483
 H        -0.460141         0.657998        -0.829595
 H        -0.780729        -1.041349        -0.355380
 H         2.446333         1.779870        -0.808124
 H         2.299044         1.826446         0.913318
 H         2.452863        -0.125303        -1.920670
 H         2.355514        -1.716287        -0.989917
 H         4.560203        -1.258418         2.522312
 H         4.899563         0.480381         2.513950
 H         2.207039        -1.861170         1.222813
