19
Iteration:  3305charge 0 multiplicity 1
 C        -0.115473         0.011794        -0.076754
 C         1.366396        -0.077564         0.113762
 C         2.312452         1.058673         0.139116
 C         3.202702        -0.167299         0.152416
 C         2.330940        -0.785234        -0.966268
 O         4.606602        -0.100524         0.686171
 C         4.285063        -0.158985         2.100878
 O         2.789771        -0.275375         2.344516
 C         2.370213        -0.769734         1.112477
 H        -0.440551         0.472771         0.973207
 H        -0.336285         0.798717        -0.880352
 H        -0.566547        -1.028593        -0.273976
 H         2.234427         1.837550        -0.636520
 H         2.446725         1.663490         1.073507
 H         2.359170        -0.383173        -2.020432
 H         2.245295        -1.886444        -0.908999
 H         4.669958        -1.070830         2.597987
 H         4.539426         0.813871         2.614058
 H         2.393688        -1.885316         1.274278
