19
Iteration:  3669
 C        -0.141153        -0.113930         0.008633
 C         1.330738        -0.034588        -0.014093
 C         2.335009         1.115626         0.086767
 C         3.227036        -0.116612         0.229363
 C         2.442488        -0.656611        -1.005392
 O         4.498836        -0.250409         0.638357
 C         4.245363        -0.239017         2.169562
 O         2.866846        -0.165301         2.378651
 C         2.308670        -0.738775         1.183720
 H        -0.547279         0.154097         0.919320
 H        -0.404419         0.406923        -0.829974
 H        -0.309665        -1.158781        -0.148809
 H         2.483993         1.706659        -0.809104
 H         2.277160         1.861687         0.877349
 H         2.507434        -0.202769        -1.974741
 H         2.439934        -1.782808        -1.032025
 H         4.760260        -1.164517         2.498938
 H         4.617212         0.767863         2.504704
 H         2.257222        -1.868931         1.036009
