19
Iteration:  1818
 C        -0.098287         0.080625         0.023767
 C         1.312124        -0.011239        -0.025707
 C         2.304684         1.171091         0.083674
 C         3.231451        -0.217598         0.176700
 C         2.338639        -0.780838        -0.971778
 O         4.540342        -0.284714         0.611114
 C         4.321584        -0.060750         2.129661
 O         2.914780        -0.337291         2.394292
 C         2.248014        -0.796213         1.194967
 H        -0.486206         0.414705         1.051241
 H        -0.324255         0.891715        -0.678889
 H        -0.568783        -0.874373        -0.144963
 H         2.562077         1.701080        -0.842998
 H         2.072089         1.733912         1.025147
 H         2.553866        -0.304758        -1.953364
 H         2.257558        -1.857676        -0.995534
 H         4.967806        -0.867832         2.638058
 H         4.605336         0.985545         2.508874
 H         2.094393        -1.841903         1.181582
