19
Iteration:  1282charge 0 multiplicity 1
 C        -0.220243         0.014607         0.133519
 C         1.422860        -0.058620         0.040776
 C         2.330298         1.244056         0.073265
 C         3.233114        -0.083253         0.106227
 C         2.321437        -0.642595        -1.017975
 O         4.590388        -0.375948         0.698548
 C         4.313789        -0.086788         2.066079
 O         2.856185        -0.439262         2.436939
 C         2.328567        -0.787735         1.079172
 H        -0.608338         0.629152         0.883005
 H        -0.613237         0.399481        -0.833123
 H        -0.624839        -0.962055         0.272268
 H         2.578822         1.820511        -0.907137
 H         2.297991         1.971935         0.868408
 H         2.401351        -0.059111        -1.902982
 H         1.955116        -1.710669        -1.132454
 H         4.944439        -0.639342         2.770978
 H         4.235499         0.965967         2.197409
 H         2.449449        -1.925781         1.059695
