19
Iteration:  2530
 C        -0.132947        -0.062469         0.006984
 C         1.414036        -0.036831         0.086989
 C         2.430599         1.178526         0.091073
 C         3.177407        -0.169105         0.149821
 C         2.321766        -0.737825        -0.957947
 O         4.535892        -0.201281         0.684015
 C         4.315236        -0.153244         2.091415
 O         2.869590        -0.258448         2.371356
 C         2.223112        -0.789513         1.123154
 H        -0.633758         0.518994         0.753528
 H        -0.488326         0.416416        -0.966535
 H        -0.468168        -1.128962        -0.100822
 H         2.286271         1.799855        -0.793184
 H         2.362547         1.765270         1.038394
 H         2.613782        -0.165375        -1.912997
 H         2.002536        -1.822961        -1.034193
 H         4.989402        -0.992586         2.559187
 H         4.688725         0.790384         2.464253
 H         2.084469        -1.923089         1.224291
