19
Iteration:   964charge 0 multiplicity 1
 C        -0.097389         0.083827         0.044692
 C         1.391441        -0.047369         0.163450
 C         2.291956         1.128208         0.163476
 C         3.207809        -0.140426         0.082284
 C         2.368400        -0.816550        -0.979861
 O         4.521545        -0.072126         0.584323
 C         4.315269        -0.199036         2.095948
 O         2.896169        -0.411010         2.363112
 C         2.303562        -0.767882         1.121923
 H        -0.425113         0.763891         0.827854
 H        -0.431046         0.494742        -0.965525
 H        -0.716224        -0.913601         0.104619
 H         2.203935         1.741534        -0.720351
 H         2.378719         1.703542         1.157120
 H         2.227561        -0.356099        -1.898269
 H         2.153714        -1.858799        -0.925171
 H         4.832673        -1.109140         2.561247
 H         4.572683         0.786128         2.469833
 H         2.067021        -1.756567         1.137227
