19
Iteration:  2707charge 0 multiplicity 1
 C        -0.153228        -0.114067        -0.066420
 C         1.393459        -0.026413         0.103257
 C         2.408549         1.113848         0.204032
 C         3.239703        -0.154649         0.127133
 C         2.296150        -0.668509        -0.983133
 O         4.515222        -0.263469         0.689597
 C         4.268248        -0.157361         2.098620
 O         2.778431        -0.218468         2.354450
 C         2.391613        -0.724926         1.096299
 H        -0.492379         0.510328         0.689243
 H        -0.483508         0.333581        -0.985139
 H        -0.622062        -1.080946         0.107390
 H         2.584261         1.760093        -0.613408
 H         2.490387         1.601229         1.173014
 H         2.532307        -0.283472        -1.953294
 H         2.245038        -1.804394        -0.919213
 H         4.919871        -0.910894         2.649030
 H         4.528155         0.867356         2.324039
 H         2.375086        -1.839817         1.079459
