19
Iteration:  1983
 C        -0.213002        -0.033077         0.100603
 C         1.398886        -0.055079         0.068903
 C         2.314526         1.205735         0.114393
 C         3.291258        -0.094804         0.104241
 C         2.432780        -0.826395        -0.983034
 O         4.511505        -0.264096         0.654668
 C         4.305699        -0.356932         2.066070
 O         2.816786        -0.067950         2.339719
 C         2.303611        -0.708806         1.166140
 H        -0.754877         0.315190         1.037972
 H        -0.624172         0.611848        -0.716098
 H        -0.577447        -1.047128        -0.086345
 H         2.470014         1.912607        -0.800459
 H         2.268307         1.669599         1.119213
 H         2.401736        -0.368479        -1.950848
 H         2.799577        -1.876255        -1.017058
 H         4.464536        -1.302259         2.394626
 H         5.025972         0.303211         2.497565
 H         2.181637        -1.808663         1.175313
