19
Iteration:  4843
 C        -0.132898        -0.018742         0.001900
 C         1.349335        -0.100530         0.011381
 C         2.250145         1.111972         0.080229
 C         3.260800        -0.107309         0.214186
 C         2.379467        -0.708531        -1.029559
 O         4.610353        -0.212132         0.616911
 C         4.254644        -0.233645         2.190794
 O         2.849352        -0.215023         2.421478
 C         2.291223        -0.798074         1.116581
 H        -0.422127         0.860094         0.714606
 H        -0.484442         0.320797        -0.928994
 H        -0.576819        -1.020021         0.222521
 H         2.374091         1.739246        -0.852372
 H         2.208356         1.812411         0.866200
 H         2.398903        -0.065289        -1.933454
 H         2.466028        -1.773187        -1.149332
 H         4.678052        -1.057085         2.628581
 H         4.697087         0.759264         2.688903
 H         2.387467        -1.829644         1.316069
