19
Iteration:  3412
 C        -0.099060        -0.062613         0.054996
 C         1.369887        -0.076308         0.050815
 C         2.332867         1.079415         0.021094
 C         3.244474        -0.086676         0.136088
 C         2.438487        -0.684832        -0.973002
 O         4.535449        -0.117533         0.668508
 C         4.226710        -0.351145         2.169911
 O         2.819801        -0.183095         2.357648
 C         2.295842        -0.738973         1.160897
 H        -0.628464         0.677685         0.758246
 H        -0.544529        -0.037894        -0.955224
 H        -0.520866        -0.895836         0.512214
 H         2.246380         1.614386        -0.943262
 H         2.222171         1.773290         0.878605
 H         2.595080        -0.130855        -1.894648
 H         2.282083        -1.759022        -1.138091
 H         4.774422        -1.290219         2.188119
 H         4.817502         0.509306         2.704545
 H         2.276106        -1.932953         1.235907
