19
Iteration:     8charge 0 multiplicity 1
 C        -0.127565        -0.055799         0.045724
 C         1.431534        -0.105627         0.054953
 C         2.351292         1.137320         0.114342
 C         3.216565        -0.152055         0.131741
 C         2.351054        -0.661822        -0.991208
 O         4.503701        -0.235518         0.642066
 C         4.259749        -0.189545         2.083322
 O         2.907840        -0.232921         2.384432
 C         2.271802        -0.743483         1.138864
 H        -0.467329         0.634324         0.961805
 H        -0.562450         0.425098        -0.777724
 H        -0.564204        -1.030666        -0.064547
 H         2.467978         1.794186        -0.805277
 H         2.224545         1.811366         0.964995
 H         2.372938        -0.147104        -1.931227
 H         2.149192        -1.755447        -1.100626
 H         4.710498        -1.080240         2.501033
 H         4.787613         0.593588         2.687703
 H         2.160313        -1.842347         1.417939
