19
Iteration:  3672charge 0 multiplicity 1
 C        -0.145295        -0.102216         0.015898
 C         1.357935        -0.018555        -0.023728
 C         2.322049         1.107619         0.087945
 C         3.217513        -0.139473         0.232527
 C         2.423372        -0.673485        -0.995469
 O         4.501870        -0.235613         0.655937
 C         4.255393        -0.235306         2.146725
 O         2.862354        -0.175306         2.372956
 C         2.322272        -0.724183         1.177399
 H        -0.627228         0.123788         0.969847
 H        -0.472881         0.453382        -0.864235
 H        -0.381433        -1.199744        -0.195256
 H         2.467023         1.706886        -0.831357
 H         2.268218         1.850850         0.883491
 H         2.633930        -0.241807        -2.026206
 H         2.461238        -1.746757        -1.101889
 H         4.738569        -1.172557         2.493085
 H         4.626971         0.734161         2.615772
 H         2.329960        -1.844652         1.115460
