19
Iteration:  4058
 C        -0.174090        -0.137222         0.079228
 C         1.407826        -0.032508        -0.000076
 C         2.339837         1.201665         0.037862
 C         3.277671        -0.088964         0.136366
 C         2.357586        -0.762543        -1.003135
 O         4.567715        -0.174802         0.721574
 C         4.200987        -0.338021         2.206726
 O         2.798052        -0.109677         2.418151
 C         2.358515        -0.704855         1.004541
 H        -0.524934        -0.010054         1.190716
 H        -0.634499         0.434138        -0.720762
 H        -0.183614        -1.158109        -0.251554
 H         2.396941         1.674335        -0.955485
 H         2.295328         1.735542         0.993116
 H         2.413896        -0.442729        -2.011622
 H         2.251501        -1.785669        -1.051147
 H         4.394252        -1.427948         2.371550
 H         5.007006         0.298801         2.623615
 H         2.424141        -1.746011         1.253335
