19
Iteration:  1388
 C        -0.152464         0.100497         0.154567
 C         1.325756        -0.069004         0.049693
 C         2.336302         1.119982         0.023982
 C         3.263123        -0.134301         0.129634
 C         2.430706        -0.847282        -0.968444
 O         4.582962        -0.003282         0.591262
 C         4.228518        -0.350935         2.042460
 O         2.837677        -0.332953         2.470556
 C         2.271170        -0.704892         1.135158
 H        -0.384738         0.643210         1.049910
 H        -0.454910         0.675918        -0.762339
 H        -0.907564        -0.820995         0.013825
 H         2.424590         1.611622        -0.909776
 H         2.225955         1.742782         0.826583
 H         2.685272        -0.498624        -1.966613
 H         2.518211        -1.951693        -0.981944
 H         4.728824        -1.300442         2.223474
 H         4.743918         0.365501         2.731105
 H         2.166651        -1.793593         1.196586
