19
Iteration:  2802charge 0 multiplicity 1
 C        -0.057977        -0.031737        -0.000170
 C         1.408055        -0.087328         0.027831
 C         2.370130         1.110536         0.149165
 C         3.184556        -0.218943         0.082638
 C         2.285120        -0.638734        -1.062357
 O         4.513352        -0.225898         0.674896
 C         4.301532        -0.055180         2.162104
 O         2.763228        -0.282339         2.394955
 C         2.364873        -0.863709         1.185690
 H        -0.487628         0.408175         0.941706
 H        -0.259787         0.775144        -0.851896
 H        -0.683461        -0.934921        -0.253101
 H         2.680235         1.615732        -0.819446
 H         2.404700         1.739393         1.116418
 H         2.419962        -0.090500        -1.955003
 H         2.346491        -1.750471        -1.150907
 H         5.033510        -0.655832         2.673966
 H         4.391655         1.038118         2.403161
 H         2.361929        -1.942512         1.452352
