19
Iteration:  1369charge 0 multiplicity 1
 C        -0.106003         0.128585         0.017720
 C         1.343305        -0.119628         0.087667
 C         2.287094         1.174329         0.021403
 C         3.200709        -0.055261         0.134314
 C         2.362632        -0.779713        -0.926859
 O         4.484356        -0.141511         0.664809
 C         4.395241        -0.285272         2.072859
 O         2.811388        -0.296328         2.373915
 C         2.383295        -0.824666         1.199448
 H        -0.338999         0.364763         1.059651
 H        -0.487713         0.891955        -0.727959
 H        -0.689485        -0.857076        -0.095489
 H         2.295677         1.784937        -0.918081
 H         2.251551         1.759290         0.937315
 H         2.156546        -0.508266        -1.970604
 H         2.389410        -1.958296        -0.976919
 H         4.762152        -1.338573         2.264399
 H         4.929487         0.538240         2.611603
 H         2.515822        -1.871766         1.132780
