19
Iteration:   640charge 0 multiplicity 1
 C        -0.164057         0.137137         0.059251
 C         1.356994        -0.076934         0.116683
 C         2.403196         1.055781         0.123979
 C         3.238529        -0.275296         0.147357
 C         2.266005        -0.668976        -1.154103
 O         4.566903        -0.296944         0.701555
 C         4.178364         0.180046         2.019330
 O         2.941066        -0.470665         2.450784
 C         2.405657        -0.871034         1.153058
 H        -0.527947         0.712099         1.035110
 H        -0.620373         0.680656        -0.911575
 H        -0.760427        -0.749227         0.082168
 H         2.355967         1.655806        -0.777308
 H         2.451230         1.670627         1.088550
 H         2.420563        -0.136584        -1.982588
 H         2.050589        -1.727047        -1.431314
 H         4.970020        -0.300160         2.719008
 H         3.962853         1.258673         2.124820
 H         2.277012        -1.912955         1.246488
