19
Iteration:  2364charge 0 multiplicity 1
 C        -0.136508         0.023238        -0.024557
 C         1.351500        -0.107698         0.137798
 C         2.392027         1.104958         0.044476
 C         3.229643        -0.129316         0.149244
 C         2.260321        -0.768760        -0.919370
 O         4.561847        -0.134470         0.651491
 C         4.272175        -0.235033         2.076987
 O         2.855818        -0.252396         2.425842
 C         2.350889        -0.757737         1.161478
 H        -0.667032         0.773260         0.703209
 H        -0.309400         0.405995        -1.067244
 H        -0.552340        -0.974837        -0.112780
 H         2.208180         1.631634        -0.900702
 H         2.498824         1.883705         0.752993
 H         2.305687        -0.262917        -1.931646
 H         2.417416        -1.869729        -1.047676
 H         4.880260        -1.112521         2.474994
 H         4.503475         0.711920         2.502832
 H         2.306525        -1.894909         1.097426
