19
Iteration:  2010charge 0 multiplicity 1
 C        -0.128408        -0.143310         0.029913
 C         1.444973        -0.014532         0.095894
 C         2.292396         1.234348         0.004270
 C         3.295092        -0.134212         0.129565
 C         2.279910        -0.710455        -0.975909
 O         4.588673        -0.236811         0.632721
 C         4.235162        -0.368100         2.152827
 O         2.904934        -0.106010         2.363095
 C         2.245256        -0.697473         1.229610
 H        -0.568757         0.377365         0.868246
 H        -0.582208         0.466460        -0.763670
 H        -0.547930        -1.183822         0.035676
 H         2.306981         1.713826        -0.912615
 H         2.289380         1.970269         0.809998
 H         2.282243        -0.254702        -2.009725
 H         2.410868        -1.776411        -1.126219
 H         4.353009        -1.543412         2.373226
 H         5.054499         0.151630         2.698157
 H         2.051360        -1.765023         1.314310
