19
Iteration:  2105
 C        -0.065595         0.037886         0.084871
 C         1.377412        -0.035772         0.047727
 C         2.371638         1.089350         0.114054
 C         3.239636        -0.259440         0.113573
 C         2.267268        -0.744533        -0.997594
 O         4.560891        -0.197155         0.657609
 C         4.303388        -0.134706         2.093675
 O         2.811435        -0.229802         2.365126
 C         2.306405        -0.769673         1.152288
 H        -0.454859         0.603888         0.910218
 H        -0.411612         0.539263        -0.865093
 H        -0.455131        -1.014941         0.063026
 H         2.261071         1.820881        -0.816584
 H         2.328119         1.731676         1.027859
 H         2.438987        -0.333733        -2.016400
 H         2.162121        -1.836516        -1.102597
 H         4.708079        -1.080130         2.451734
 H         4.759946         0.735487         2.656089
 H         2.020015        -1.874911         1.237896
