19
Iteration:  1458charge 0 multiplicity 1
 C        -0.157026        -0.155176         0.072965
 C         1.364660         0.010266         0.130433
 C         2.356190         1.240756         0.078272
 C         3.211452        -0.155620         0.160236
 C         2.407152        -0.677712        -0.977866
 O         4.486284        -0.274662         0.626297
 C         4.251186        -0.351142         2.103673
 O         2.900203        -0.138561         2.308638
 C         2.299845        -0.653688         1.130495
 H        -0.597304         0.579413         0.879892
 H        -0.538599         0.093959        -0.963421
 H        -0.547517        -1.196057         0.237678
 H         2.585732         1.858823        -0.796603
 H         2.335962         1.775136         1.092596
 H         2.775513        -0.288166        -1.992889
 H         2.276466        -1.836626        -0.967421
 H         4.437009        -1.369589         2.549453
 H         4.904820         0.259945         2.688758
 H         2.294611        -1.692445         1.143925
