19
Iteration:  4278
 C        -0.155613        -0.094979        -0.089388
 C         1.363840         0.004329         0.100320
 C         2.315435         1.129564        -0.019573
 C         3.224387        -0.087910         0.138832
 C         2.282310        -0.826486        -0.997207
 O         4.550416        -0.030655         0.759594
 C         4.303428        -0.446419         2.089470
 O         2.853061        -0.181172         2.427260
 C         2.374939        -0.673697         1.200913
 H        -0.686834         0.522237         0.645344
 H        -0.247370         0.273667        -1.085266
 H        -0.130205        -1.098735         0.140853
 H         2.291362         1.529440        -1.053877
 H         2.228031         1.956930         0.747924
 H         2.393229        -0.210160        -1.881570
 H         2.410266        -1.912900        -0.878064
 H         4.526501        -1.481220         2.324999
 H         4.814510         0.162423         2.828301
 H         2.352249        -1.736022         1.359572
