19
Iteration:  3517charge 0 multiplicity 1
 C        -0.154936        -0.091282         0.020761
 C         1.369691        -0.060815         0.042779
 C         2.429870         1.169677         0.207049
 C         3.278578        -0.143745         0.087300
 C         2.365021        -0.683151        -1.023770
 O         4.505466        -0.393869         0.719227
 C         4.293796         0.068577         2.077097
 O         2.789060        -0.297938         2.382824
 C         2.306429        -0.786112         1.131810
 H        -0.595038         0.042802         1.021442
 H        -0.657123         0.717631        -0.534432
 H        -0.241289        -1.087754        -0.645572
 H         2.344873         1.877211        -0.642098
 H         2.373371         1.741317         1.162978
 H         2.373652        -0.303198        -2.043212
 H         2.346461        -1.834417        -1.205912
 H         4.909734        -0.423750         2.839650
 H         4.491335         1.151729         2.100552
 H         2.193549        -1.842641         1.015073
