19
Iteration:   956charge 0 multiplicity 1
 C        -0.043720         0.134513         0.080395
 C         1.406158        -0.078847         0.080353
 C         2.245309         1.127621         0.170970
 C         3.218655        -0.158553         0.122654
 C         2.308364        -0.811873        -0.930394
 O         4.511411        -0.071725         0.595711
 C         4.322383        -0.150990         2.025327
 O         2.848420        -0.425590         2.367848
 C         2.324180        -0.810739         1.101535
 H        -0.417022         0.886087         0.813623
 H        -0.358999         0.614196        -0.905275
 H        -0.485774        -0.803746         0.259959
 H         2.142349         1.799932        -0.671656
 H         2.397431         1.677006         1.152084
 H         2.494188        -0.392525        -1.962000
 H         2.444086        -2.001305        -1.001636
 H         4.894282        -0.973315         2.499278
 H         4.535953         0.742234         2.602539
 H         2.132901        -1.951303         1.195160
