19
Iteration:  1511charge 0 multiplicity 1
 C        -0.167318         0.112903        -0.067067
 C         1.372782        -0.085752         0.159675
 C         2.430144         1.129056         0.140117
 C         3.208452        -0.149389         0.107415
 C         2.257998        -0.779563        -0.934578
 O         4.505428        -0.172792         0.683856
 C         4.372971        -0.166381         2.054109
 O         2.875794        -0.281544         2.346076
 C         2.314037        -0.823573         1.163516
 H        -0.743483         0.328744         0.874818
 H        -0.477559         0.745122        -0.943962
 H        -0.631623        -0.921361        -0.180299
 H         2.375331         1.662340        -0.759919
 H         2.491609         1.722521         1.033265
 H         2.186406        -0.485751        -1.953087
 H         2.414076        -1.879245        -1.008543
 H         4.861224        -0.969937         2.596917
 H         4.580229         0.833181         2.403486
 H         2.291428        -1.955757         1.195346
