19
Iteration:  4582
 C        -0.170808        -0.014832        -0.011403
 C         1.311122        -0.084137         0.027949
 C         2.358650         1.114583        -0.040419
 C         3.208807        -0.074940         0.182480
 C         2.485747        -0.784566        -1.017829
 O         4.537023        -0.047893         0.714454
 C         4.242845        -0.387753         2.168019
 O         2.891641        -0.193495         2.411065
 C         2.271175        -0.765167         1.208809
 H        -0.611046         0.251843         1.048621
 H        -0.561510         0.863061        -0.512658
 H        -0.671738        -0.971170        -0.061688
 H         2.448827         1.590797        -1.072066
 H         2.274136         1.967936         0.640745
 H         2.442052        -0.448418        -2.039434
 H         2.301107        -1.817985        -0.968715
 H         4.703709        -1.449138         2.244532
 H         4.830679         0.416286         2.593427
 H         2.409867        -1.913843         1.126084
