19
Iteration:  2014charge 0 multiplicity 1
 C        -0.159381        -0.131876         0.038232
 C         1.436817        -0.004204         0.114541
 C         2.311293         1.237376        -0.000035
 C         3.283336        -0.162152         0.113294
 C         2.286952        -0.723548        -0.973354
 O         4.621802        -0.211540         0.630343
 C         4.261966        -0.393375         2.145924
 O         2.875013        -0.107112         2.391031
 C         2.263721        -0.698324         1.199088
 H        -0.740123         0.381437         0.868078
 H        -0.599262         0.339633        -0.842603
 H        -0.474288        -1.141700        -0.016748
 H         2.380188         1.773857        -1.014897
 H         2.292222         2.011701         0.805562
 H         2.183133        -0.198125        -1.919324
 H         2.427474        -1.799314        -1.158402
 H         4.416492        -1.498557         2.331477
 H         4.966976         0.214119         2.728079
 H         1.903558        -1.805622         1.439799
