19
Iteration:  4506
 C        -0.134275        -0.097144        -0.037973
 C         1.342997        -0.087498         0.023649
 C         2.340080         1.200929         0.053136
 C         3.220105        -0.098729         0.171154
 C         2.338300        -0.646870        -1.047652
 O         4.592191        -0.278073         0.751134
 C         4.338128        -0.191910         2.100232
 O         2.830958        -0.254480         2.388595
 C         2.267558        -0.707963         1.210173
 H        -0.583641         0.705422         0.719424
 H        -0.614460        -0.107601        -1.091947
 H        -0.444945        -1.088707         0.431934
 H         2.335603         1.491700        -0.956357
 H         2.364155         1.832559         0.951210
 H         2.564760        -0.133345        -1.978845
 H         2.407732        -1.731013        -1.150176
 H         4.891063        -1.085628         2.532696
 H         4.625575         0.704633         2.665635
 H         2.043940        -1.857577         1.184606
