19
Iteration:  2531charge 0 multiplicity 1
 C        -0.132678        -0.065688         0.009158
 C         1.403222        -0.036869         0.096316
 C         2.432396         1.177347         0.089181
 C         3.185735        -0.165195         0.154812
 C         2.329070        -0.729606        -0.963251
 O         4.543034        -0.204415         0.677272
 C         4.307435        -0.147796         2.092141
 O         2.865562        -0.261165         2.367152
 C         2.215279        -0.786997         1.130796
 H        -0.631306         0.533170         0.751282
 H        -0.474483         0.416774        -0.984320
 H        -0.461039        -1.184982        -0.095635
 H         2.329750         1.779997        -0.784608
 H         2.393765         1.772621         1.024222
 H         2.585116        -0.194029        -1.930664
 H         2.007052        -1.813194        -1.024355
 H         5.013633        -0.998571         2.505773
 H         4.675301         0.777379         2.494412
 H         2.054539        -1.924926         1.239116
