19
Iteration:  1205charge 0 multiplicity 1
 C        -0.168081         0.025311         0.062864
 C         1.378818        -0.029341         0.148856
 C         2.224973         1.210694         0.146135
 C         3.262518        -0.250331         0.144992
 C         2.365635        -0.615322        -1.053903
 O         4.528764        -0.357886         0.621361
 C         4.302063        -0.022735         2.134145
 O         2.931445        -0.390451         2.354761
 C         2.311399        -0.804705         1.080986
 H        -0.532936         0.343434         0.968356
 H        -0.364272         0.793573        -0.690798
 H        -0.721117        -0.866068        -0.169964
 H         2.081383         1.809636        -0.810668
 H         2.480305         1.655666         1.076804
 H         2.526764         0.003250        -1.889009
 H         2.365010        -1.673845        -1.307487
 H         4.828095        -0.680631         2.812097
 H         4.527873         1.023364         2.340601
 H         2.234235        -1.953792         1.295010
