19
Iteration:  2076
 C        -0.250351         0.104598         0.039721
 C         1.305660        -0.190722         0.086370
 C         2.345538         1.157609         0.033920
 C         3.269312        -0.165121         0.091816
 C         2.383091        -0.754669        -0.928701
 O         4.536953        -0.199685         0.678355
 C         4.299525        -0.213150         2.074734
 O         2.866892        -0.225657         2.378322
 C         2.407406        -0.768369         1.162441
 H        -0.504510         0.935926         0.733188
 H        -0.433241         0.540840        -0.967329
 H        -0.972672        -0.726303         0.316319
 H         2.093872         1.635316        -0.845704
 H         2.324687         1.805876         0.935316
 H         2.438507        -0.259794        -1.944631
 H         2.577127        -1.836764        -1.020833
 H         4.657779        -1.238540         2.374522
 H         4.873377         0.423246         2.738241
 H         2.277797        -1.860307         1.263750
