19
Iteration:   209
 C        -0.149410         0.050715        -0.055493
 C         1.351920        -0.054867         0.147836
 C         2.362995         1.126478         0.185213
 C         3.255969        -0.189807         0.118612
 C         2.301055        -0.736736        -0.978466
 O         4.618328        -0.272191         0.587538
 C         4.270268         0.011906         2.043311
 O         2.809007        -0.366125         2.426649
 C         2.354829        -0.813581         1.185008
 H        -0.748742         0.134069         0.921901
 H        -0.402038         0.890935        -0.689929
 H        -0.546059        -0.906195        -0.494130
 H         2.381684         1.705943        -0.754773
 H         2.391356         1.769728         1.150705
 H         2.163347        -0.089182        -1.922961
 H         2.378017        -1.817969        -1.045438
 H         4.803629        -0.688507         2.607707
 H         4.529048         1.070590         2.268834
 H         2.159234        -1.937710         1.193926
