19
Iteration:  4299
 C        -0.238108        -0.136762        -0.088908
 C         1.293390        -0.078773         0.022303
 C         2.334938         1.169029        -0.050800
 C         3.279141        -0.080030         0.136612
 C         2.356915        -0.767699        -0.919233
 O         4.555166         0.005155         0.749006
 C         4.317937        -0.449671         2.137516
 O         2.953702        -0.176788         2.434392
 C         2.277501        -0.695005         1.186491
 H        -0.668457         0.829519         0.335265
 H        -0.279004         0.048572        -1.122949
 H        -0.706326        -0.999541         0.327554
 H         2.553554         1.655516        -0.981299
 H         2.413177         1.761189         0.884371
 H         2.320385        -0.208384        -1.918270
 H         2.130483        -1.842047        -0.755056
 H         4.392471        -1.581842         2.206310
 H         4.865255         0.003986         2.949996
 H         2.294122        -1.783207         1.269828
