19
Iteration:  3234charge 0 multiplicity 1
 C        -0.135541        -0.093113         0.033656
 C         1.423336        -0.034089         0.129596
 C         2.425145         1.150169         0.192866
 C         3.250211        -0.161271         0.086924
 C         2.372950        -0.679285        -1.020231
 O         4.520510        -0.347032         0.710014
 C         4.157272         0.043502         2.071782
 O         2.801084        -0.338483         2.346485
 C         2.328285        -0.782229         1.070059
 H        -0.473180         0.678211         0.778439
 H        -0.479594         0.182936        -0.976530
 H        -0.488427        -1.092229         0.320103
 H         2.594164         1.792746        -0.657703
 H         2.514636         1.836847         1.009526
 H         2.458568        -0.083964        -1.936513
 H         2.346028        -1.746227        -1.064733
 H         4.834941        -0.571924         2.712618
 H         4.296727         1.165314         2.220094
 H         2.301883        -1.871526         1.128521
