19
Iteration:  3843charge 0 multiplicity 1
 C        -0.096110         0.047059         0.013598
 C         1.382723        -0.068770         0.064053
 C         2.293593         1.111810         0.132986
 C         3.249173        -0.091101         0.180769
 C         2.411079        -0.761888        -1.038325
 O         4.529498        -0.216413         0.656169
 C         4.230928        -0.053832         2.113084
 O         2.820504        -0.300570         2.405606
 C         2.357953        -0.887473         1.163368
 H        -0.504378         0.505903         0.946884
 H        -0.333854         0.690340        -1.007479
 H        -0.589336        -0.972575        -0.266507
 H         2.329410         1.546968        -0.868167
 H         2.197459         1.763496         0.990415
 H         2.372573        -0.492972        -2.097428
 H         2.231118        -1.940700        -1.195324
 H         4.883177        -0.714806         2.629815
 H         4.536238         0.947739         2.494039
 H         2.240886        -1.956279         1.050705
