19
Iteration:  3525
 C        -0.102094        -0.074584         0.015871
 C         1.380363        -0.031088         0.088274
 C         2.433289         1.123390         0.170740
 C         3.250047        -0.195296         0.100561
 C         2.372147        -0.696782        -0.982032
 O         4.494525        -0.364250         0.725632
 C         4.269502         0.080778         2.042562
 O         2.794383        -0.302270         2.379240
 C         2.305205        -0.751882         1.064122
 H        -0.485773        -0.174392         1.011808
 H        -0.495466         0.720496        -0.600946
 H        -0.447039        -1.112100        -0.457240
 H         2.470517         1.784042        -0.697227
 H         2.419331         1.576350         1.151844
 H         2.239733         0.055507        -1.765956
 H         2.389201        -1.749762        -1.172710
 H         4.921741        -0.515891         2.747934
 H         4.220390         1.198953         2.320670
 H         2.157625        -1.923852         0.997016
