19
Iteration:  2304
 C        -0.157709        -0.028244         0.069910
 C         1.366949        -0.026901         0.111697
 C         2.379080         1.156234         0.084723
 C         3.245485        -0.220052         0.110014
 C         2.315198        -0.701635        -1.023800
 O         4.589459        -0.289966         0.642117
 C         4.243292        -0.177896         2.130923
 O         2.820091        -0.178189         2.326213
 C         2.348786        -0.775458         1.216202
 H        -0.736249         0.283897         0.842688
 H        -0.366538         0.536763        -0.822669
 H        -0.463344        -1.052707        -0.230006
 H         2.348595         1.772724        -0.883245
 H         2.299253         1.724758         1.095154
 H         2.381564        -0.147483        -1.971228
 H         2.308780        -1.808893        -1.162531
 H         4.879324        -0.902444         2.653192
 H         4.605752         0.868938         2.492376
 H         2.212630        -1.842261         1.310751
