19
Iteration:  2454charge 0 multiplicity 1
 C        -0.091665        -0.076730         0.045840
 C         1.396429        -0.058178         0.014284
 C         2.401974         1.173220         0.088013
 C         3.270496        -0.184025         0.147124
 C         2.238281        -0.781951        -0.969541
 O         4.594924        -0.165968         0.650858
 C         4.266530        -0.188886         2.156114
 O         2.776840        -0.248183         2.405711
 C         2.287638        -0.716665         1.072211
 H        -0.338218         0.415961         1.011556
 H        -0.640021         0.586091        -0.740565
 H        -0.710366        -1.068988         0.008441
 H         2.520530         1.775255        -0.784091
 H         2.552548         1.776784         0.985736
 H         2.198808        -0.195644        -1.939265
 H         2.315865        -1.867989        -1.048741
 H         4.915439        -1.065562         2.420265
 H         4.673801         0.752875         2.454828
 H         2.240329        -1.826509         1.290963
