19
Iteration:  4431
 C        -0.165283         0.104579        -0.026295
 C         1.394581        -0.101606         0.066776
 C         2.361584         1.050926         0.115452
 C         3.265788        -0.237814         0.092875
 C         2.346568        -0.729089        -1.042894
 O         4.557810        -0.305428         0.744192
 C         4.179437         0.131787         2.104676
 O         2.904261        -0.365372         2.425603
 C         2.326151        -0.843300         1.144070
 H        -0.328281         0.280806         1.061830
 H        -0.437733         0.999064        -0.664262
 H        -0.692483        -0.676322        -0.550434
 H         2.288112         1.757726        -0.708671
 H         2.377049         1.383389         1.173658
 H         2.187150        -0.139417        -1.990646
 H         2.483697        -1.872106        -1.392064
 H         4.929239        -0.190249         2.858259
 H         4.132685         1.243315         2.021361
 H         2.081005        -1.916950         1.237074
