19
Iteration:  2767charge 0 multiplicity 1
 C        -0.161825         0.022199         0.043582
 C         1.310925        -0.051091         0.044722
 C         2.365560         1.135533         0.097132
 C         3.271578        -0.141534         0.116250
 C         2.395995        -0.751084        -0.978254
 O         4.535628        -0.187589         0.690077
 C         4.270742        -0.052821         2.162621
 O         2.804337        -0.367269         2.301551
 C         2.360465        -0.855135         1.141967
 H        -0.405873         0.774077         0.916312
 H        -0.447850         0.626189        -0.898585
 H        -0.701741        -0.921260         0.115796
 H         2.628273         1.905617        -0.691790
 H         2.305308         1.703821         1.070705
 H         2.509750        -0.608467        -2.076229
 H         2.511963        -1.821242        -0.853424
 H         4.776973        -0.823567         2.724447
 H         4.400956         0.973985         2.583850
 H         2.134341        -1.953096         0.917361
