19
Iteration:  2896charge 0 multiplicity 1
 C        -0.096587         0.060631         0.005498
 C         1.376758        -0.112723         0.053903
 C         2.349898         1.066301         0.138306
 C         3.250302        -0.118576         0.128248
 C         2.389250        -0.734832        -0.951284
 O         4.544804        -0.159167         0.664575
 C         4.224299        -0.123597         2.100293
 O         2.780564        -0.305407         2.339834
 C         2.365895        -0.815111         1.133877
 H        -0.552933         0.769423         0.738703
 H        -0.421414         0.260459        -0.974263
 H        -0.652232        -0.864400         0.247357
 H         2.391475         1.836007        -0.603571
 H         2.358197         1.468704         1.119642
 H         2.238417        -0.204835        -2.003111
 H         2.595471        -1.800592        -0.955917
 H         4.869162        -0.959910         2.550824
 H         4.438998         0.852131         2.560467
 H         2.126025        -1.933381         1.153966
