19
Iteration:  3027charge 0 multiplicity 1
 C        -0.053297        -0.022968        -0.042126
 C         1.415903        -0.126353         0.121943
 C         2.284038         1.164231         0.069911
 C         3.233710        -0.130174         0.150377
 C         2.398950        -0.774151        -0.945325
 O         4.559460        -0.031814         0.656459
 C         4.278965        -0.339286         2.111203
 O         2.836092        -0.227278         2.397019
 C         2.259361        -0.773210         1.134262
 H        -0.600852         0.741381         0.784082
 H        -0.420307         0.650059        -0.922413
 H        -0.878205        -0.892398        -0.187492
 H         2.295858         1.648877        -0.864561
 H         2.167777         1.690480         1.016692
 H         2.379874        -0.496857        -2.074591
 H         2.394975        -1.879252        -1.001064
 H         4.656170        -1.314890         2.399519
 H         4.727164         0.521337         2.619803
 H         2.057365        -1.837589         1.387674
