19
Iteration:   914
 C        -0.147103         0.029046         0.188280
 C         1.366354         0.004972         0.185284
 C         2.370204         1.087903         0.085461
 C         3.226130        -0.212543         0.078227
 C         2.349890        -0.662459        -1.088077
 O         4.635727        -0.275733         0.709615
 C         4.243816         0.012570         2.051776
 O         2.861938        -0.388394         2.343006
 C         2.281800        -0.848944         1.076680
 H        -0.574586         0.670300         1.007053
 H        -0.494397         0.545126        -0.706648
 H        -0.588802        -0.898115         0.089690
 H         2.286379         1.839112        -0.705376
 H         2.191356         1.563145         1.028206
 H         2.361893         0.021701        -2.015679
 H         2.160646        -1.782500        -1.384736
 H         4.866775        -0.670462         2.623636
 H         4.263278         1.113214         2.325893
 H         2.194236        -2.055980         1.178680
