19
Iteration:  4217
 C        -0.052854        -0.061690         0.064685
 C         1.410656        -0.132570         0.047615
 C         2.342402         1.146114         0.105386
 C         3.279805        -0.191857         0.106939
 C         2.327814        -0.691018        -1.029806
 O         4.558642        -0.285949         0.730363
 C         4.181810        -0.087075         2.181663
 O         2.820095        -0.178496         2.304449
 C         2.305668        -0.810594         1.145487
 H        -0.397052         0.203063         1.033327
 H        -0.571051         0.719415        -0.610666
 H        -0.771791        -0.912465        -0.293674
 H         2.344972         1.679834        -0.888969
 H         2.364187         1.974245         0.865839
 H         2.405103        -0.122427        -1.931199
 H         2.467464        -1.732623        -1.442449
 H         4.867520        -0.823625         2.738133
 H         4.473485         0.992635         2.512414
 H         2.129952        -1.951367         1.212297
