19
Iteration:  1911charge 0 multiplicity 1
 C        -0.168978         0.142538         0.075852
 C         1.403041         0.004344         0.125055
 C         2.358303         1.096155         0.043209
 C         3.253656        -0.224986         0.155823
 C         2.404711        -0.764498        -0.948446
 O         4.563736        -0.241885         0.657353
 C         4.210007        -0.047743         2.077630
 O         2.867728        -0.362284         2.327459
 C         2.332924        -0.826203         1.119177
 H        -0.574734         0.806756         0.794491
 H        -0.641622         0.528822        -0.842957
 H        -0.742195        -0.755549         0.422225
 H         2.295414         1.549234        -0.887187
 H         2.081149         1.606264         0.928758
 H         2.354238        -0.246491        -1.919560
 H         2.300618        -1.852860        -0.903808
 H         4.893445        -0.859345         2.466023
 H         4.464484         0.935915         2.544825
 H         2.064552        -1.950269         1.072172
