19
Iteration:  4338charge 0 multiplicity 1
 C        -0.083656        -0.082864         0.022922
 C         1.361417        -0.070514         0.118076
 C         2.305628         1.106368         0.085633
 C         3.242604        -0.088491         0.135222
 C         2.435217        -0.760896        -1.000128
 O         4.542910        -0.164778         0.659443
 C         4.244249        -0.321525         2.137279
 O         2.803739        -0.152335         2.384250
 C         2.306964        -0.692482         1.145402
 H        -0.516301         0.846265         0.446346
 H        -0.266645        -0.010271        -1.082836
 H        -0.843936        -0.900770         0.203720
 H         2.240306         1.843767        -0.768718
 H         2.313751         1.632543         1.017978
 H         2.575135        -0.445384        -2.034311
 H         2.469235        -1.811716        -1.043547
 H         4.745286        -1.228552         2.309201
 H         4.746878         0.549140         2.544252
 H         2.154392        -1.813286         1.194644
