19
Iteration:  3171
 C        -0.057272         0.031631        -0.058955
 C         1.351741        -0.093233         0.113000
 C         2.256032         1.191709         0.124650
 C         3.204904        -0.141249         0.194973
 C         2.422857        -0.789366        -0.948848
 O         4.591395        -0.193935         0.613745
 C         4.254972        -0.053102         2.090706
 O         2.800562        -0.365056         2.377991
 C         2.344151        -0.823705         1.157708
 H        -0.558500         0.364252         0.929323
 H        -0.387719         0.931119        -0.647802
 H        -0.644443        -0.816128        -0.365359
 H         2.269043         1.523205        -0.837683
 H         2.315851         1.879151         0.963157
 H         2.472297        -0.525934        -1.936724
 H         2.347123        -1.890943        -0.928356
 H         4.854839        -0.806579         2.514018
 H         4.448705         0.936866         2.507303
 H         2.199232        -1.871372         1.070081
