19
Iteration:  3432charge 0 multiplicity 1
 C        -0.147962        -0.020012         0.029391
 C         1.354664        -0.088946         0.024121
 C         2.265743         1.215702         0.095285
 C         3.217531        -0.125423         0.088714
 C         2.382061        -0.819532        -1.046402
 O         4.585686        -0.102932         0.751943
 C         4.273549        -0.251974         2.136122
 O         2.841807        -0.270123         2.389874
 C         2.305825        -0.768293         1.128958
 H        -0.447863         0.943029         0.575177
 H        -0.478363         0.112445        -1.011714
 H        -0.724539        -0.819380         0.420709
 H         2.459417         1.737860        -0.843714
 H         2.376453         1.787041         1.046601
 H         2.282004        -0.401650        -2.036724
 H         2.600456        -1.948232        -0.986934
 H         4.765592        -1.218882         2.459582
 H         4.887529         0.649325         2.626346
 H         2.532776        -1.910606         1.222666
