19
Iteration:  2466charge 0 multiplicity 1
 C        -0.087565         0.016365         0.067947
 C         1.382614        -0.102515         0.078289
 C         2.453893         1.152875         0.087734
 C         3.232896        -0.133743         0.116361
 C         2.334621        -0.785309        -1.065960
 O         4.489153        -0.130498         0.627609
 C         4.239940        -0.175158         2.122610
 O         2.868013        -0.222373         2.406214
 C         2.242439        -0.850050         1.189707
 H        -0.491206         0.383328         1.017276
 H        -0.310950         0.725166        -0.818531
 H        -0.466938        -1.089396        -0.158244
 H         2.330547         1.736971        -0.764737
 H         2.386242         1.712187         1.026063
 H         2.536965        -0.478150        -2.093554
 H         2.164174        -1.865098        -1.030789
 H         4.658560        -1.058498         2.671693
 H         4.635244         0.737176         2.549768
 H         2.170401        -1.966037         1.113071
