19
Iteration:  4128
 C        -0.171081         0.073312        -0.133278
 C         1.376769        -0.085013         0.114273
 C         2.336829         1.066662         0.185671
 C         3.267761        -0.177251         0.164599
 C         2.310560        -0.728800        -0.916640
 O         4.554423        -0.205801         0.708394
 C         4.295724         0.007009         2.087300
 O         2.893041        -0.337686         2.375311
 C         2.279775        -0.859021         1.077015
 H        -0.508471         0.866498         0.417468
 H        -0.239756         0.223294        -1.228349
 H        -0.677456        -0.868244         0.065525
 H         2.369614         1.664867        -0.748390
 H         2.236704         1.514650         1.198238
 H         2.316816        -0.316056        -1.857505
 H         2.278316        -1.792499        -1.126224
 H         5.014643        -0.614243         2.648148
 H         4.306880         1.105077         2.413213
 H         2.303839        -1.998537         1.149591
