19
Iteration:  4050
 C        -0.098529        -0.161882         0.063588
 C         1.382789        -0.020270        -0.015542
 C         2.366949         1.138235         0.075619
 C         3.311667        -0.090407         0.113649
 C         2.361765        -0.759413        -0.959368
 O         4.526793        -0.105167         0.684802
 C         4.201543        -0.381104         2.182871
 O         2.811118        -0.095985         2.356644
 C         2.317468        -0.711932         1.077276
 H        -0.339042         0.025283         1.051368
 H        -0.736396         0.514723        -0.570620
 H        -0.454316        -1.157248        -0.124563
 H         2.390173         1.765104        -0.852218
 H         2.379430         1.893758         0.880829
 H         2.579372        -0.366651        -1.910599
 H         2.210740        -1.866214        -0.993358
 H         4.287903        -1.394871         2.545828
 H         4.874809         0.188751         2.926436
 H         2.191998        -1.871580         1.136132
