19
Iteration:  2064charge 0 multiplicity 1
 C        -0.111960         0.087940         0.035976
 C         1.400958        -0.058619         0.099161
 C         2.236823         1.085341         0.050013
 C         3.221176        -0.106536         0.156731
 C         2.354137        -0.831364        -0.970301
 O         4.612624        -0.147109         0.609127
 C         4.342575        -0.321190         2.075116
 O         2.818194        -0.226798         2.417805
 C         2.267543        -0.703012         1.185097
 H        -0.394529         0.889595         0.722704
 H        -0.472680         0.313402        -1.010501
 H        -0.679828        -0.889214         0.263938
 H         2.297634         1.651585        -0.845117
 H         2.203454         1.730886         0.950871
 H         2.471656        -0.368435        -2.001584
 H         2.257976        -1.928213        -0.935785
 H         4.615988        -1.326966         2.357884
 H         4.803933         0.543500         2.553266
 H         2.383996        -1.803206         1.147394
