19
Iteration:  1647charge 0 multiplicity 1
 C        -0.139592         0.061974        -0.040697
 C         1.427077        -0.075770         0.112388
 C         2.275134         1.138917         0.087412
 C         3.177380        -0.110824         0.082818
 C         2.338992        -0.813251        -0.940136
 O         4.464058        -0.206542         0.717651
 C         4.298013        -0.249094         2.062988
 O         2.959865        -0.209678         2.354435
 C         2.331043        -0.775689         1.226234
 H        -0.480055         0.602192         0.893435
 H        -0.274177         0.659903        -0.968850
 H        -0.799726        -0.829190        -0.189589
 H         2.368657         1.791599        -0.835163
 H         2.252218         1.695236         0.995843
 H         2.363853        -0.381804        -1.976534
 H         2.404184        -1.905522        -1.063485
 H         4.752716        -1.171789         2.473664
 H         4.677955         0.594056         2.519574
 H         2.369619        -1.852520         1.123448
