19
Iteration:  2983charge 0 multiplicity 1
 C        -0.142819        -0.133120        -0.033898
 C         1.368710        -0.071462         0.097631
 C         2.352875         1.209169         0.087885
 C         3.238556        -0.122619         0.172387
 C         2.355594        -0.700606        -0.982613
 O         4.574711        -0.216337         0.663219
 C         4.253017        -0.260655         2.117711
 O         2.853390        -0.157485         2.387842
 C         2.258222        -0.749325         1.137667
 H        -0.467948         0.231257         1.023471
 H        -0.230441         0.666724        -0.819270
 H        -0.277501        -1.192576        -0.334038
 H         2.365116         1.702856        -0.849264
 H         2.353802         1.814816         0.971072
 H         2.331917        -0.237817        -2.055200
 H         2.333876        -1.766991        -1.140663
 H         4.596694        -1.282586         2.366468
 H         4.692812         0.498663         2.759157
 H         2.155302        -1.847030         1.315685
