19
Iteration:  2253charge 0 multiplicity 1
 C        -0.193497         0.014674         0.063982
 C         1.338001         0.004412         0.117826
 C         2.349371         1.154658         0.060769
 C         3.265244        -0.228747         0.140205
 C         2.476287        -0.747561        -0.987726
 O         4.574105        -0.285050         0.681400
 C         4.292757        -0.080048         2.058602
 O         2.859197        -0.326409         2.396715
 C         2.225359        -0.718272         1.082663
 H        -0.544155         0.725370         0.983434
 H        -0.705709         0.364217        -0.848561
 H        -0.610927        -0.996058         0.234157
 H         2.286814         1.693861        -0.846581
 H         2.381014         1.728283         0.967570
 H         2.371909        -0.281925        -1.980905
 H         2.283912        -1.870581        -1.038390
 H         4.987990        -0.798503         2.592548
 H         4.525016         0.932999         2.374095
 H         1.968622        -1.851953         1.090928
