19
Iteration:  2403charge 0 multiplicity 1
 C        -0.100755        -0.033815         0.068236
 C         1.406095        -0.078770        -0.005003
 C         2.344694         1.112239         0.093433
 C         3.245302        -0.122976         0.180217
 C         2.368848        -0.691201        -1.025127
 O         4.569732        -0.276447         0.620376
 C         4.236617        -0.223219         2.044101
 O         2.806401        -0.165923         2.395887
 C         2.260681        -0.717176         1.222181
 H        -0.577012         0.520787         0.807488
 H        -0.551316         0.167236        -0.892620
 H        -0.383892        -1.051728         0.455048
 H         2.370433         1.810275        -0.797722
 H         2.131440         1.517144         1.127344
 H         2.570407        -0.224702        -1.942466
 H         2.380587        -1.779435        -1.048870
 H         4.666158        -1.107881         2.527277
 H         4.818856         0.711125         2.386607
 H         2.331457        -1.765621         1.390884
