19
Iteration:  1436charge 0 multiplicity 1
 C        -0.101111        -0.088580         0.109544
 C         1.426007        -0.018557         0.085037
 C         2.364065         1.167734         0.064437
 C         3.308615        -0.074360         0.115807
 C         2.283328        -0.720875        -1.017618
 O         4.649980        -0.202359         0.587664
 C         4.140098        -0.365301         2.183773
 O         2.837301        -0.126760         2.373345
 C         2.301249        -0.726933         1.122126
 H        -0.562057         0.604098         0.939403
 H        -0.647064        -0.023717        -0.883731
 H        -0.475038        -1.102479         0.420239
 H         2.410313         1.738943        -0.892803
 H         2.377216         1.780616         1.050347
 H         1.918114        -0.260512        -2.008411
 H         2.215841        -1.887750        -1.172491
 H         4.384097        -1.462590         2.330404
 H         4.763575         0.201733         2.879117
 H         2.075315        -1.731414         1.214312
