19
Iteration:     2charge 0 multiplicity 1
 C        -0.128031        -0.017038         0.060067
 C         1.386635        -0.060521         0.092272
 C         2.360057         1.139254         0.118990
 C         3.233420        -0.153018         0.131775
 C         2.341282        -0.713646        -0.988728
 O         4.521818        -0.224083         0.655703
 C         4.267388        -0.168288         2.079918
 O         2.864599        -0.264291         2.351542
 C         2.308563        -0.770370         1.136016
 H        -0.500758         0.521822         0.890452
 H        -0.522425         0.515047        -0.883811
 H        -0.559062        -1.041743         0.026394
 H         2.414505         1.756917        -0.763642
 H         2.348768         1.762361         1.021637
 H         2.364991        -0.206502        -1.972204
 H         2.265546        -1.793644        -1.091414
 H         4.813951        -1.033289         2.560773
 H         4.649141         0.758868         2.534008
 H         2.225878        -1.846953         1.211087
