19
Iteration:  2883
 C        -0.205597        -0.000631        -0.016223
 C         1.364558        -0.055789         0.079054
 C         2.384034         1.126669         0.159985
 C         3.297098        -0.224892         0.098355
 C         2.358881        -0.767151        -1.055104
 O         4.598971        -0.146274         0.694884
 C         4.244618        -0.070226         2.119085
 O         2.828637        -0.324466         2.448018
 C         2.264734        -0.795017         1.082464
 H        -0.490343         0.740408         0.727427
 H        -0.490710         0.406880        -0.944093
 H        -0.658820        -1.024576         0.156956
 H         2.407851         1.840616        -0.639104
 H         2.365010         1.618499         1.078311
 H         2.576322        -0.198443        -2.039727
 H         2.096205        -1.793579        -1.262234
 H         4.789674        -0.912016         2.611274
 H         4.607420         0.885969         2.508489
 H         2.370827        -1.933511         1.121300
