19
Iteration:  4250charge 0 multiplicity 1
 C        -0.162737        -0.092605        -0.003953
 C         1.343195        -0.096122         0.039938
 C         2.399482         1.205203         0.126508
 C         3.261557        -0.088010         0.119518
 C         2.459079        -0.839240        -0.966762
 O         4.540091        -0.144284         0.648647
 C         4.238863        -0.300597         2.107441
 O         2.815873        -0.147291         2.362549
 C         2.267555        -0.705405         1.170589
 H        -0.421960         0.256195         1.000947
 H        -0.554806         0.701161        -0.803965
 H        -0.618247        -1.187883        -0.100864
 H         2.363908         1.738103        -0.849153
 H         2.351011         1.748832         1.090864
 H         2.484074        -0.363726        -1.955603
 H         2.688254        -1.956031        -0.974337
 H         4.546582        -1.342357         2.444668
 H         4.588675         0.585755         2.730710
 H         2.107438        -1.847756         1.328536
