19
Iteration:  1675charge 0 multiplicity 1
 C        -0.222771        -0.016694        -0.052213
 C         1.412548        -0.015163         0.099674
 C         2.365379         1.090803         0.073720
 C         3.288476        -0.187079         0.131245
 C         2.293075        -0.795233        -0.880870
 O         4.629884        -0.038160         0.564664
 C         4.244367        -0.376054         2.085772
 O         2.879869        -0.148733         2.446223
 C         2.259140        -0.757752         1.186978
 H        -0.711409         0.446469         0.834067
 H        -0.275399         0.604181        -0.926315
 H        -0.783039        -0.928892        -0.101152
 H         2.596893         1.545203        -0.844467
 H         2.236960         1.738694         1.011405
 H         2.443426        -0.263663        -1.828913
 H         2.190948        -1.834650        -1.081527
 H         4.410605        -1.477530         2.095192
 H         4.848477         0.409587         2.731300
 H         2.123674        -1.895806         1.419082
