19
Iteration:  4306charge 0 multiplicity 1
 C        -0.203684        -0.100493        -0.087931
 C         1.334137        -0.048956        -0.002326
 C         2.329218         1.119991         0.011490
 C         3.236354        -0.069580         0.202021
 C         2.363594        -0.763916        -0.861880
 O         4.516415        -0.005502         0.699903
 C         4.271098        -0.460937         2.113982
 O         2.927626        -0.163878         2.404961
 C         2.323404        -0.702402         1.161886
 H        -0.585115         0.857499         0.362889
 H        -0.338209        -0.072188        -1.205535
 H        -0.528923        -1.053525         0.438021
 H         2.560538         1.670953        -0.909678
 H         2.245810         1.831281         0.789757
 H         2.520782        -0.382307        -1.925444
 H         2.268762        -1.830530        -0.786978
 H         4.546728        -1.559155         2.149863
 H         4.906570         0.055004         2.848391
 H         2.361549        -1.819390         1.331440
