19
Iteration:  2812charge 0 multiplicity 1
 C        -0.141993        -0.040523        -0.028889
 C         1.380563        -0.080478         0.041841
 C         2.387493         1.104708         0.222358
 C         3.233348        -0.193364         0.213013
 C         2.374494        -0.714824        -1.007375
 O         4.518480        -0.259810         0.711954
 C         4.281277        -0.067139         2.067204
 O         2.821919        -0.259492         2.339382
 C         2.312389        -0.773268         1.092607
 H        -0.469757         0.300339         1.012462
 H        -0.503714         0.757396        -0.827404
 H        -0.581813        -1.023418        -0.336038
 H         2.418696         1.745328        -0.729360
 H         2.462346         1.810439         1.132168
 H         2.462056        -0.113490        -1.908844
 H         2.061461        -1.766990        -1.183768
 H         4.995160        -0.611220         2.698692
 H         4.434292         1.021335         2.325153
 H         2.258076        -1.982563         1.002465
