19
Iteration:   264charge 0 multiplicity 1
 C        -0.141809        -0.030210         0.143554
 C         1.374079        -0.116729         0.119232
 C         2.331806         1.133206         0.000089
 C         3.275168        -0.018301         0.112536
 C         2.416078        -0.808890        -0.925014
 O         4.563148        -0.087834         0.689325
 C         4.236941        -0.395055         2.085460
 O         2.835387        -0.259837         2.357744
 C         2.268684        -0.624259         1.087459
 H        -0.376175         0.825520         0.807381
 H        -0.398731         0.204147        -0.879230
 H        -0.805354        -0.942864         0.231163
 H         2.149502         1.726869        -0.932327
 H         2.363071         1.856333         0.909580
 H         2.381663        -0.356253        -1.999939
 H         2.417031        -1.906991        -1.020571
 H         4.557122        -1.409876         2.207125
 H         4.872707         0.325293         2.673937
 H         2.247035        -1.773178         0.987341
