19
Iteration:  2739charge 0 multiplicity 1
 C        -0.088589        -0.041460         0.030139
 C         1.365590        -0.043051         0.052264
 C         2.306182         1.104512         0.045500
 C         3.266967        -0.176360         0.123039
 C         2.379918        -0.672977        -1.015368
 O         4.525737        -0.210581         0.682147
 C         4.253243        -0.129336         2.147083
 O         2.828609        -0.365190         2.411534
 C         2.299033        -0.709676         1.143890
 H        -0.270491         0.669139         0.766529
 H        -0.366658         0.275658        -0.980980
 H        -0.673912        -0.940487         0.265095
 H         2.467950         1.759869        -0.816618
 H         2.293183         1.741670         0.963320
 H         2.564410        -0.165320        -1.942410
 H         2.343358        -1.823767        -1.133147
 H         4.947565        -0.798374         2.722049
 H         4.495965         0.921774         2.497778
 H         2.052961        -1.757005         1.056061
