19
Iteration:  2840charge 0 multiplicity 1
 C        -0.119430        -0.075030        -0.024649
 C         1.374128        -0.028403         0.101761
 C         2.331661         1.226146         0.168539
 C         3.252084        -0.110117         0.155503
 C         2.426883        -0.751472        -1.038082
 O         4.545733        -0.331794         0.609818
 C         4.240682        -0.097952         2.130653
 O         2.797834        -0.329096         2.432238
 C         2.325834        -0.721507         1.143486
 H        -0.590715         0.254793         0.885497
 H        -0.367201         0.585399        -0.773653
 H        -0.416887        -1.074726        -0.300633
 H         2.327457         1.772111        -0.745007
 H         2.476490         1.880432         0.959664
 H         2.378328        -0.334177        -2.098924
 H         2.320497        -1.842396        -1.059907
 H         5.007575        -0.593522         2.780401
 H         4.230059         0.968828         2.217256
 H         2.069998        -1.693383         1.033764
