19
Iteration:  4325
 C        -0.073909        -0.064517        -0.055701
 C         1.412331        -0.084900         0.099055
 C         2.254461         1.247563         0.083353
 C         3.224369        -0.084316         0.093785
 C         2.491666        -0.854275        -0.985567
 O         4.517253        -0.103899         0.672208
 C         4.289043        -0.363653         2.030732
 O         2.828478        -0.180169         2.416527
 C         2.223052        -0.714529         1.244440
 H        -0.454054         0.813561         0.384153
 H        -0.361343        -0.040090        -1.164365
 H        -0.411968        -0.924825         0.543416
 H         2.203266         1.889193        -0.886362
 H         2.298690         1.756295         1.080105
 H         2.367822        -0.372867        -1.882366
 H         2.481770        -1.935290        -0.795684
 H         4.385094        -1.375629         2.304599
 H         4.853712         0.241306         2.776369
 H         2.167319        -1.816477         1.312331
