19
Iteration:   408
 C        -0.080640         0.089422         0.142143
 C         1.414787        -0.024584         0.157482
 C         2.380450         1.087408         0.128837
 C         3.308991        -0.227682         0.036254
 C         2.291601        -0.749673        -1.030384
 O         4.481944        -0.308530         0.720922
 C         4.164197         0.122002         2.009685
 O         2.830670        -0.451147         2.402291
 C         2.384762        -0.781410         1.065881
 H        -0.354420         0.491040         1.053797
 H        -0.386250         0.761672        -0.790943
 H        -0.611328        -0.888057        -0.146307
 H         2.551788         1.859748        -0.705991
 H         2.313322         1.489718         1.125992
 H         2.324297        -0.385278        -2.093803
 H         2.129305        -1.912391        -0.972879
 H         5.004362        -0.097673         2.778207
 H         4.179214         1.240444         1.860929
 H         2.391686        -1.947432         1.018301
