19
Iteration:  2951
 C        -0.156707        -0.153739         0.003060
 C         1.362068        -0.076299         0.011944
 C         2.471107         1.264849         0.097780
 C         3.226431        -0.129909         0.203999
 C         2.318478        -0.687394        -0.970821
 O         4.558791        -0.221544         0.679524
 C         4.253384        -0.196674         2.115910
 O         2.840767        -0.224865         2.394717
 C         2.270125        -0.765498         1.073796
 H        -0.698247         0.342036         0.878891
 H        -0.656765         0.362101        -0.809164
 H        -0.609618        -1.145447        -0.061456
 H         2.633034         1.821682        -0.801297
 H         2.449345         1.814013         1.036197
 H         2.484897        -0.279523        -2.052038
 H         2.258654        -1.780399        -0.915526
 H         4.817599        -1.145768         2.363002
 H         4.617146         0.625167         2.739153
 H         2.286985        -1.874743         1.219800
