19
Iteration:  2962charge 0 multiplicity 1
 C        -0.158652        -0.168042        -0.003935
 C         1.380568         0.088423         0.084223
 C         2.402989         1.198345         0.091682
 C         3.249888        -0.143699         0.083239
 C         2.363926        -0.719104        -0.959581
 O         4.486941        -0.196122         0.689190
 C         4.265281        -0.252570         2.119161
 O         2.806423        -0.214780         2.357046
 C         2.347356        -0.775292         1.173427
 H        -0.581581         0.204991         0.992019
 H        -0.324220         0.424165        -0.873937
 H        -0.172489        -1.223553        -0.180157
 H         2.435658         1.870154        -0.738871
 H         2.542121         1.728444         1.035689
 H         2.425391        -0.294411        -2.056409
 H         2.230304        -1.806832        -1.041593
 H         4.566795        -1.179371         2.683759
 H         4.781283         0.660729         2.428638
 H         2.096722        -1.883806         1.166804
