19
Iteration:  2161charge 0 multiplicity 1
 C        -0.121815        -0.014492         0.061574
 C         1.335985        -0.077429         0.046606
 C         2.348925         1.202507         0.132518
 C         3.211370        -0.198333         0.135350
 C         2.325955        -0.707298        -1.088040
 O         4.642927        -0.448951         0.656498
 C         4.261159        -0.025656         2.096960
 O         2.871075        -0.266588         2.431633
 C         2.236179        -0.724107         1.194637
 H        -0.353958         0.373654         1.013225
 H        -0.406041         0.689801        -0.761469
 H        -0.641679        -0.984400        -0.163854
 H         2.568974         1.812093        -0.864062
 H         2.126691         1.876998         1.041095
 H         2.164022        -0.023262        -1.974202
 H         2.343103        -1.776419        -1.336265
 H         4.838761        -0.622759         2.715290
 H         4.450568         1.109122         2.083536
 H         2.429156        -1.825206         1.100260
