19
Iteration:  2212charge 0 multiplicity 1
 C        -0.171576         0.129896        -0.002938
 C         1.362523        -0.046264         0.099299
 C         2.385672         1.062163         0.079649
 C         3.330986        -0.182821         0.040572
 C         2.260779        -0.797001        -0.972072
 O         4.569550        -0.151259         0.649210
 C         4.271504        -0.031718         2.122693
 O         2.855094        -0.423863         2.441395
 C         2.292471        -0.840851         1.165600
 H        -0.533802         0.850358         0.774974
 H        -0.315618         0.614388        -0.996411
 H        -0.767505        -0.775400         0.131944
 H         2.354131         1.709834        -0.797563
 H         2.468450         1.638729         0.966342
 H         2.260744        -0.342061        -1.972378
 H         2.193799        -1.876384        -0.966528
 H         5.115279        -0.589999         2.721296
 H         4.472752         1.021709         2.331473
 H         2.085871        -1.922579         1.178824
