19
Iteration:  2053
 C        -0.057135         0.014734         0.016063
 C         1.330153        -0.063530         0.052087
 C         2.354942         1.228607         0.051141
 C         3.211195        -0.124893         0.151942
 C         2.337238        -0.837774        -0.923284
 O         4.509909        -0.111991         0.623126
 C         4.282956        -0.377834         2.075024
 O         2.885929        -0.194661         2.390930
 C         2.308424        -0.765045         1.183154
 H        -0.472332         0.735496         0.714359
 H        -0.380738         0.368140        -1.019120
 H        -0.406503        -1.016767         0.441954
 H         2.476602         1.791816        -0.841872
 H         2.217321         1.863831         0.955095
 H         2.138712        -0.467930        -1.994216
 H         2.242946        -1.938730        -0.955505
 H         4.852652        -1.262518         2.419064
 H         4.759427         0.414235         2.678090
 H         1.941264        -1.809209         1.315455
