19
Iteration:  2422
 C        -0.123770        -0.130813         0.084523
 C         1.369486        -0.030366         0.120403
 C         2.342081         1.271982         0.059908
 C         3.229470        -0.162137         0.147087
 C         2.430973        -0.739445        -1.014705
 O         4.469072        -0.302093         0.663101
 C         4.283494        -0.219635         2.138619
 O         2.851937        -0.161368         2.364568
 C         2.301846        -0.744514         1.051860
 H        -0.459622         0.559015         0.897647
 H        -0.495518         0.362369        -0.899040
 H        -0.654371        -1.124939         0.440761
 H         2.356212         1.563949        -0.932511
 H         2.578563         1.927854         0.893589
 H         2.355033        -0.140322        -1.933442
 H         2.529381        -1.806012        -1.167513
 H         4.859230        -1.052423         2.646477
 H         4.585471         0.714806         2.657959
 H         2.118600        -1.872198         1.112961
