19
Iteration:   724
 C        -0.139541        -0.150883         0.056728
 C         1.328980         0.008690         0.119692
 C         2.331421         1.179254         0.091349
 C         3.236617        -0.220818         0.125473
 C         2.371165        -0.668265        -1.056901
 O         4.549383        -0.206460         0.643271
 C         4.288394        -0.352044         2.105265
 O         2.897349        -0.063866         2.355395
 C         2.280298        -0.721707         1.192174
 H        -0.533323         0.264487         0.922828
 H        -0.622760         0.274039        -0.818566
 H        -0.250573        -1.235977         0.056620
 H         2.361874         1.951773        -0.638773
 H         2.521541         1.589460         1.065065
 H         2.163360        -0.018479        -1.972290
 H         2.159523        -1.777588        -1.276117
 H         4.567494        -1.360888         2.307819
 H         4.970219         0.237526         2.669940
 H         2.063518        -1.822138         1.311558
