19
Iteration:  1484
 C        -0.118751        -0.034676        -0.045704
 C         1.371461        -0.052955         0.104430
 C         2.298348         1.182804         0.076887
 C         3.231669        -0.153936         0.143436
 C         2.285247        -0.673864        -0.959049
 O         4.577902        -0.271244         0.534058
 C         4.374549        -0.301030         2.174359
 O         2.852475        -0.192434         2.442639
 C         2.266352        -0.692638         1.185740
 H        -0.535336         0.357330         0.859716
 H        -0.512920         0.379837        -0.944020
 H        -0.496995        -1.041926        -0.007020
 H         2.281649         1.753458        -0.918427
 H         2.230886         1.810854         1.018537
 H         2.452203        -0.270160        -2.011816
 H         2.316042        -1.740595        -1.107710
 H         4.761181        -1.249479         2.670196
 H         4.858339         0.628354         2.608561
 H         2.167875        -1.833335         1.256858
