19
Iteration:  2645charge 0 multiplicity 1
 C        -0.138650         0.011655        -0.026522
 C         1.294121        -0.074456         0.068504
 C         2.368774         1.167823         0.081402
 C         3.279670        -0.176081         0.124375
 C         2.294890        -0.772937        -1.047721
 O         4.584378        -0.171956         0.712682
 C         4.272925        -0.173416         2.168615
 O         2.852754        -0.291319         2.406728
 C         2.382509        -0.769499         1.096653
 H        -0.491968         0.301487         1.040094
 H        -0.580155         0.740198        -0.696028
 H        -0.710745        -0.952871        -0.227743
 H         2.403042         1.745238        -0.836738
 H         2.240356         1.858972         0.889402
 H         2.288669        -0.422960        -2.079842
 H         2.292929        -1.839020        -0.981948
 H         4.789771        -0.872404         2.806719
 H         4.453013         0.793376         2.528698
 H         2.190241        -1.841765         1.276398
