19
Iteration:  3623charge 0 multiplicity 1
 C        -0.156046        -0.097667        -0.077423
 C         1.359844        -0.032728         0.051241
 C         2.399251         1.169601         0.171023
 C         3.284960        -0.150670         0.159745
 C         2.312635        -0.695206        -0.987074
 O         4.526116        -0.227098         0.667037
 C         4.269193        -0.077709         2.197560
 O         2.897818        -0.266770         2.345463
 C         2.253449        -0.851406         1.099389
 H        -0.479706         0.623930         0.649824
 H        -0.428300        -0.053397        -1.100682
 H        -0.536685        -0.909966         0.453608
 H         2.528521         1.881754        -0.655702
 H         2.410936         1.860277         1.025900
 H         2.316711        -0.188805        -1.940700
 H         2.319853        -1.811552        -1.160947
 H         4.788744        -0.959658         2.655982
 H         4.487774         0.950384         2.558868
 H         2.045634        -2.006319         1.152540
