19
Iteration:  1072charge 0 multiplicity 1
 C        -0.102078         0.052552         0.149753
 C         1.379903        -0.084298         0.075487
 C         2.352794         1.126470        -0.013419
 C         3.199692        -0.125402         0.077935
 C         2.232675        -0.748722        -1.054971
 O         4.501813         0.027461         0.727875
 C         4.269722        -0.378740         2.144081
 O         2.912361        -0.324999         2.396296
 C         2.376371        -0.774363         1.126402
 H        -0.453278         0.564751         0.977206
 H        -0.480749         0.589324        -0.687472
 H        -0.531744        -1.006804         0.205684
 H         2.391682         1.699775        -0.900360
 H         2.529911         1.814357         0.870470
 H         2.291812        -0.341572        -2.019594
 H         2.170109        -1.798850        -1.044107
 H         4.800497        -1.329431         2.077807
 H         4.710673         0.306899         2.864002
 H         2.348793        -1.884098         0.823625
