19
Iteration:  4309
 C        -0.165373        -0.083459        -0.100005
 C         1.359130        -0.035673         0.009208
 C         2.329326         1.119825         0.038645
 C         3.209449        -0.071194         0.227660
 C         2.367361        -0.777845        -0.854713
 O         4.509285        -0.013829         0.685152
 C         4.252155        -0.460585         2.107360
 O         2.910832        -0.160371         2.394501
 C         2.343645        -0.700867         1.166121
 H        -0.610047         0.849074         0.413142
 H        -0.497012        -0.189391        -1.124850
 H        -0.496185        -0.990450         0.393056
 H         2.474702         1.645787        -0.865999
 H         2.167275         1.884655         0.778402
 H         2.563644        -0.491033        -1.964675
 H         2.394477        -1.886327        -0.914744
 H         4.584089        -1.566955         2.097138
 H         4.930394         0.116911         2.721586
 H         2.331545        -1.794647         1.280229
