19
Iteration:  4807charge 0 multiplicity 1
 C        -0.102078        -0.105786        -0.033837
 C         1.352913         0.022582         0.116906
 C         2.440567         1.204278         0.149896
 C         3.224929        -0.127960         0.166699
 C         2.336211        -0.731748        -0.966553
 O         4.589793        -0.291110         0.615664
 C         4.210328        -0.095700         2.157681
 O         2.835782        -0.271350         2.362567
 C         2.242551        -0.771580         1.111734
 H        -0.680356        -0.013710         0.950078
 H        -0.566703         0.515801        -0.889765
 H        -0.319988        -1.220337        -0.306087
 H         2.632190         1.721914        -0.746526
 H         2.453275         1.762747         1.117090
 H         2.404223        -0.339552        -2.027034
 H         2.221693        -1.789137        -0.944543
 H         4.871150        -0.806476         2.735702
 H         4.544535         1.007445         2.271067
 H         2.080297        -1.910824         0.973290
