19
Iteration:   520
 C        -0.135053        -0.052259        -0.026312
 C         1.361719        -0.056137         0.057831
 C         2.309025         1.194463         0.074776
 C         3.172660        -0.102486         0.207608
 C         2.350241        -0.851930        -0.899811
 O         4.517847        -0.016165         0.670457
 C         4.389982        -0.475365         1.949447
 O         2.906991        -0.111769         2.392420
 C         2.272113        -0.693172         1.237880
 H        -0.589754         0.317453         0.892689
 H        -0.625364         0.402020        -0.890967
 H        -0.453105        -1.013539        -0.196631
 H         2.449890         1.661442        -0.928403
 H         2.198855         1.965935         0.894938
 H         2.615907        -0.507083        -1.840938
 H         2.330845        -1.984295        -0.922218
 H         4.257501        -1.557359         2.007854
 H         5.195163        -0.288337         2.648764
 H         2.090156        -1.830235         1.329361
