19
Iteration:  4633charge 0 multiplicity 1
 C        -0.165839        -0.078637        -0.040967
 C         1.359866        -0.085539         0.052362
 C         2.420273         1.123417         0.134543
 C         3.224378        -0.142852         0.172508
 C         2.295500        -0.732673        -0.956672
 O         4.549683        -0.192901         0.684153
 C         4.268629        -0.200523         2.165651
 O         2.844375        -0.155138         2.333410
 C         2.348447        -0.811244         1.155682
 H        -0.730116         0.356392         0.797893
 H        -0.384138         0.582897        -0.884045
 H        -0.612603        -1.073018        -0.420398
 H         2.427985         1.791862        -0.818841
 H         2.364494         1.957743         0.943105
 H         2.377000        -0.048204        -1.974586
 H         2.388877        -1.825610        -1.194067
 H         4.650241        -1.156575         2.442115
 H         4.898233         0.629020         2.598618
 H         2.214491        -1.851591         1.250554
