19
Iteration:   719charge 0 multiplicity 1
 C        -0.142627        -0.142926         0.036604
 C         1.362084         0.003140         0.089239
 C         2.316172         1.159675         0.097775
 C         3.227572        -0.226037         0.125528
 C         2.341229        -0.646395        -1.025255
 O         4.563605        -0.204739         0.644995
 C         4.302371        -0.351578         2.097773
 O         2.916090        -0.065834         2.360863
 C         2.276987        -0.761637         1.185816
 H        -0.713954         0.253243         0.974666
 H        -0.651768         0.417499        -0.785530
 H        -0.389788        -1.249267         0.085029
 H         2.363559         1.871943        -0.834056
 H         2.496563         1.711246         1.053616
 H         2.250265         0.010464        -1.866039
 H         2.152638        -1.642038        -1.330056
 H         4.648863        -1.392193         2.433547
 H         4.844634         0.441073         2.734766
 H         2.038025        -1.839388         1.361388
