19
Iteration:  1220
 C        -0.129984         0.159985         0.086552
 C         1.329924        -0.136394         0.137811
 C         2.323254         1.065668         0.217921
 C         3.228890        -0.118527         0.090612
 C         2.357302        -0.698754        -1.056338
 O         4.559255        -0.244799         0.696390
 C         4.245213        -0.058027         2.042350
 O         2.872330        -0.371469         2.334642
 C         2.372920        -0.898400         1.115456
 H        -0.495372         0.711125         1.069943
 H        -0.377216         0.860533        -0.746996
 H        -0.680559        -0.750928        -0.174400
 H         2.364240         1.718720        -0.702520
 H         2.136879         1.676105         1.131575
 H         2.244592        -0.158432        -2.012880
 H         2.288701        -1.754749        -1.258426
 H         5.062151        -0.634949         2.574176
 H         4.415447         1.021273         2.298418
 H         2.322746        -1.970874         0.928496
