19
Iteration:  2179charge 0 multiplicity 1
 C        -0.114269         0.084693         0.012894
 C         1.424987        -0.074050         0.096793
 C         2.375439         1.065621         0.193114
 C         3.274047        -0.188943         0.107984
 C         2.339487        -0.717594        -0.964465
 O         4.476229        -0.317251         0.618843
 C         4.280989         0.008358         2.025253
 O         2.811890        -0.265934         2.403622
 C         2.322603        -0.856982         1.159177
 H        -0.454887         0.649663         0.911413
 H        -0.490510         0.654174        -0.849966
 H        -0.627352        -0.839471        -0.149420
 H         2.378420         1.755483        -0.640234
 H         2.462526         1.542502         1.128954
 H         2.476599        -0.257748        -1.937967
 H         2.251356        -1.797675        -1.101830
 H         4.965399        -0.722258         2.628644
 H         4.362056         1.080982         2.079029
 H         2.140858        -1.939123         1.217776
