19
Iteration:  3131
 C        -0.246647        -0.116134        -0.028366
 C         1.407460        -0.001076         0.007781
 C         2.346328         1.194754         0.177788
 C         3.294625        -0.221899         0.131694
 C         2.316751        -0.709206        -1.032799
 O         4.588622        -0.195014         0.690476
 C         4.299623        -0.163685         2.160337
 O         2.812884        -0.218155         2.360522
 C         2.338371        -0.792766         1.148373
 H        -0.480431         0.265257         0.913390
 H        -0.485117         0.514215        -0.846872
 H        -0.567291        -1.119310        -0.161060
 H         2.585786         1.559904        -0.898135
 H         2.267163         1.959394         1.002420
 H         2.374632        -0.158114        -2.013749
 H         2.024200        -1.825602        -1.076556
 H         4.704889        -1.062586         2.681167
 H         4.690035         0.751279         2.634934
 H         2.299708        -1.894254         1.383728
