19
Iteration:   466charge 0 multiplicity 1
 C        -0.095285        -0.046484         0.049753
 C         1.393596        -0.079805         0.102212
 C         2.390948         1.172245         0.149552
 C         3.212617        -0.098456         0.117767
 C         2.286585        -0.726873        -0.969779
 O         4.502964        -0.259254         0.643227
 C         4.244734        -0.167283         2.088595
 O         2.877964        -0.229612         2.329736
 C         2.321470        -0.796820         1.104986
 H        -0.496006         0.681493         0.790168
 H        -0.536480         0.319477        -0.860807
 H        -0.510142        -0.955510         0.386129
 H         2.499061         1.821633        -0.770447
 H         2.419094         1.779151         1.116507
 H         2.278311        -0.358604        -2.024291
 H         2.478390        -1.882607        -0.837202
 H         4.757100        -0.906570         2.632817
 H         4.553297         0.850952         2.381070
 H         2.319594        -1.950531         1.111232
