19
Iteration:  4827
 C        -0.108158        -0.063735        -0.003482
 C         1.405423        -0.056103         0.076116
 C         2.343931         1.189947         0.107222
 C         3.232149        -0.121773         0.096867
 C         2.420595        -0.725862        -0.988280
 O         4.460127        -0.269939         0.722802
 C         4.286047        -0.167373         2.072642
 O         2.824059        -0.253261         2.368370
 C         2.330238        -0.723234         1.172950
 H        -0.525691         0.402044         0.886830
 H        -0.526980         0.346837        -1.023843
 H        -0.556141        -1.121118        -0.045987
 H         2.278277         1.828547        -0.751149
 H         2.242087         1.790993         1.086165
 H         2.485857        -0.157720        -1.926515
 H         2.353540        -1.858444        -0.948330
 H         4.895908        -1.092849         2.562263
 H         4.635715         0.786212         2.482237
 H         2.161599        -1.878413         1.026605
