19
Iteration:  2815charge 0 multiplicity 1
 C        -0.154386        -0.031805        -0.033128
 C         1.365049        -0.070570         0.056891
 C         2.390257         1.114375         0.216922
 C         3.263237        -0.175274         0.215083
 C         2.391796        -0.724236        -0.998182
 O         4.528123        -0.273038         0.715452
 C         4.271223        -0.050046         2.053483
 O         2.838454        -0.261684         2.333118
 C         2.284308        -0.792893         1.096930
 H        -0.501967         0.238947         0.939275
 H        -0.536111         0.726897        -0.769892
 H        -0.544796        -1.058954        -0.308274
 H         2.377714         1.777296        -0.666955
 H         2.420230         1.746348         1.127539
 H         2.456228        -0.177281        -1.898667
 H         2.093577        -1.782079        -1.212919
 H         4.881027        -0.696910         2.667273
 H         4.442448         1.021561         2.312895
 H         2.224645        -1.824274         0.952889
