19
Iteration:   687charge 0 multiplicity 1
 C        -0.156932         0.056173         0.001762
 C         1.406473        -0.052817         0.126956
 C         2.288751         1.175615         0.124282
 C         3.196782        -0.097192         0.040025
 C         2.352912        -0.811621        -0.929996
 O         4.523172        -0.232381         0.635749
 C         4.334483        -0.160328         2.075595
 O         2.883518        -0.316443         2.419393
 C         2.345124        -0.776006         1.132626
 H        -0.652900         0.358163         0.988437
 H        -0.474225         0.707372        -0.802658
 H        -0.662093        -0.914726        -0.322225
 H         2.236066         1.880390        -0.804712
 H         2.460904         1.600063         1.152784
 H         2.132774        -0.357264        -1.903169
 H         2.402564        -1.855451        -0.983216
 H         4.923581        -0.938017         2.562418
 H         4.467559         0.886252         2.438678
 H         2.365028        -1.937255         1.150390
