19
Iteration:  1441
 C        -0.116615        -0.095270         0.104216
 C         1.394475         0.044080         0.061325
 C         2.344251         1.189159         0.103479
 C         3.303457        -0.117573         0.106684
 C         2.331388        -0.732605        -0.991127
 O         4.633718        -0.210043         0.563205
 C         4.193572        -0.421494         2.235615
 O         2.829820        -0.098222         2.342310
 C         2.287152        -0.726749         1.124502
 H        -0.641106         0.444576         0.840312
 H        -0.587779         0.006016        -0.843587
 H        -0.319761        -1.095174         0.482964
 H         2.235566         1.714841        -0.865279
 H         2.420292         1.832920         0.996982
 H         2.088407        -0.323346        -1.966375
 H         2.266169        -1.747806        -1.187378
 H         4.514870        -1.468780         2.281932
 H         4.711254         0.421745         2.778425
 H         1.965401        -1.858931         1.267042
