19
Iteration:  4288
 C        -0.223337        -0.114155        -0.126227
 C         1.344413        -0.064829         0.131251
 C         2.354353         1.197506        -0.059946
 C         3.226693        -0.107655         0.121229
 C         2.301481        -0.825610        -1.006834
 O         4.612276         0.001153         0.804204
 C         4.306169        -0.458638         2.143018
 O         2.921702        -0.188113         2.456485
 C         2.311465        -0.639047         1.203904
 H        -0.751592         0.633730         0.525341
 H        -0.571591        -0.010556        -1.100831
 H        -0.690734        -1.048832         0.117364
 H         2.231966         1.711484        -0.989337
 H         2.420444         1.939670         0.756035
 H         2.189749        -0.370011        -2.040032
 H         2.407771        -1.890955        -1.242686
 H         4.557386        -1.555689         2.168591
 H         4.990052         0.106565         2.739013
 H         2.139293        -1.703919         1.244962
