19
Iteration:   396
 C        -0.066233         0.119892         0.088065
 C         1.387171        -0.044992         0.108089
 C         2.416353         1.142769         0.154903
 C         3.212979        -0.160049         0.066721
 C         2.271707        -0.849300        -1.008200
 O         4.612142        -0.256074         0.658868
 C         4.182329         0.106637         2.039239
 O         2.842285        -0.441899         2.394105
 C         2.309444        -0.859968         1.112815
 H        -0.514473         0.370234         1.012665
 H        -0.415169         0.954128        -0.623422
 H        -0.502006        -0.933199        -0.101120
 H         2.295884         1.802736        -0.729043
 H         2.557495         1.769619         1.025058
 H         2.300256        -0.442264        -2.053122
 H         2.310197        -1.961024        -0.984222
 H         4.959392        -0.433249         2.712882
 H         3.999521         1.193604         2.274789
 H         2.091995        -1.967367         1.091306
