19
Iteration:     4
 C        -0.127788        -0.027105         0.067083
 C         1.408689        -0.077879         0.082303
 C         2.357930         1.136158         0.115349
 C         3.225692        -0.153106         0.130148
 C         2.344451        -0.697111        -0.984616
 O         4.515189        -0.227852         0.652118
 C         4.259077        -0.169299         2.075156
 O         2.879510        -0.257665         2.360797
 C         2.296143        -0.761525         1.132886
 H        -0.469167         0.545639         0.866913
 H        -0.580794         0.523608        -0.920377
 H        -0.570283        -1.065802        -0.023290
 H         2.433403         1.770351        -0.749298
 H         2.306270         1.797887         1.005402
 H         2.368005        -0.182021        -1.984152
 H         2.219265        -1.775213        -1.091653
 H         4.805384        -1.073867         2.578526
 H         4.706040         0.708845         2.608939
 H         2.211952        -1.827540         1.295276
