19
Iteration:   299
 C        -0.095890        -0.224119         0.080752
 C         1.338335        -0.022032        -0.027648
 C         2.390983         1.176073         0.019366
 C         3.262836        -0.085815         0.172706
 C         2.262102        -0.685821        -0.983061
 O         4.546903        -0.117164         0.702406
 C         4.274033        -0.484772         2.064884
 O         2.903932        -0.140923         2.423314
 C         2.257735        -0.572128         1.172901
 H        -0.594258         0.497371         0.643148
 H        -0.526272        -0.112362        -0.990082
 H        -0.339085        -1.182247         0.601718
 H         2.460411         1.725104        -1.044530
 H         2.483613         1.876583         0.905410
 H         2.396580        -0.049294        -1.931199
 H         2.206002        -1.851134        -1.175617
 H         4.278672        -1.546444         2.163003
 H         5.023929        -0.057919         2.734498
 H         2.031929        -1.715371         1.300289
