19
Iteration:  1239charge 0 multiplicity 1
 C        -0.073666         0.160681         0.089071
 C         1.365867        -0.090873         0.113225
 C         2.428925         1.065284         0.217543
 C         3.234863        -0.210205         0.145737
 C         2.306666        -0.785506        -1.027473
 O         4.563332        -0.073587         0.563490
 C         4.278849         0.000869         2.065276
 O         2.736920        -0.460051         2.351081
 C         2.323928        -0.924394         1.100104
 H        -0.094539         0.818215         0.943280
 H        -0.352549         0.883291        -0.692753
 H        -0.780711        -0.581682         0.163565
 H         2.359891         2.018771        -0.425517
 H         2.384313         1.561654         1.191917
 H         2.421945        -0.317353        -1.953069
 H         2.186752        -1.880194        -1.057564
 H         4.989563        -0.771021         2.448729
 H         4.320228         0.992810         2.467310
 H         2.288012        -2.130297         1.046486
