19
Iteration:  3173
 C        -0.075339         0.044086        -0.055825
 C         1.357435        -0.085043         0.111203
 C         2.258003         1.197586         0.113921
 C         3.186098        -0.131190         0.193680
 C         2.409538        -0.789506        -0.938965
 O         4.598375        -0.198205         0.609751
 C         4.256248        -0.048587         2.101141
 O         2.809595        -0.363317         2.375222
 C         2.337551        -0.834899         1.145627
 H        -0.524814         0.348892         0.909369
 H        -0.372374         0.926970        -0.667313
 H        -0.589654        -0.838341        -0.338837
 H         2.248634         1.511397        -0.890764
 H         2.338633         1.725938         1.073401
 H         2.574705        -0.520973        -1.984653
 H         2.402375        -1.939801        -0.938716
 H         4.856917        -0.772747         2.600819
 H         4.417645         0.928575         2.523327
 H         2.280358        -1.960753         1.117905
