19
Iteration:  2841
 C        -0.113665        -0.078379        -0.029446
 C         1.374896        -0.030003         0.101403
 C         2.334111         1.226821         0.165877
 C         3.253384        -0.111655         0.163261
 C         2.424863        -0.753194        -1.033812
 O         4.540939        -0.329063         0.612949
 C         4.242643        -0.096214         2.125444
 O         2.798598        -0.330525         2.435676
 C         2.323408        -0.717720         1.139358
 H        -0.595136         0.260432         0.900322
 H        -0.372544         0.592505        -0.768744
 H        -0.426360        -1.062746        -0.274730
 H         2.315904         1.756810        -0.762872
 H         2.474093         1.887116         0.964451
 H         2.384890        -0.321394        -2.102554
 H         2.281721        -1.826440        -1.078983
 H         5.006849        -0.617388         2.782550
 H         4.235563         0.965729         2.201681
 H         2.101678        -1.708025         0.994136
