19
Iteration:   958charge 0 multiplicity 1
 C        -0.057006         0.120463         0.068322
 C         1.420780        -0.069830         0.102719
 C         2.247900         1.125525         0.181314
 C         3.209199        -0.157844         0.109927
 C         2.322436        -0.817634        -0.931383
 O         4.510765        -0.068092         0.587799
 C         4.330849        -0.169755         2.043850
 O         2.859363        -0.425975         2.368497
 C         2.319816        -0.783118         1.091714
 H        -0.434125         0.880238         0.800796
 H        -0.378131         0.574100        -0.863386
 H        -0.507032        -0.794361         0.201668
 H         2.127720         1.787788        -0.699906
 H         2.413916         1.651655         1.092301
 H         2.444325        -0.352930        -2.002272
 H         2.378743        -1.998778        -0.987844
 H         4.818699        -0.979710         2.540101
 H         4.525909         0.779072         2.599340
 H         2.075244        -1.961750         1.230405
