19
Iteration:  2789
 C        -0.088780         0.053739        -0.002479
 C         1.400805        -0.104292         0.116375
 C         2.387734         1.078868         0.081363
 C         3.275296        -0.183939         0.176094
 C         2.334103        -0.724510        -1.099301
 O         4.568183        -0.195686         0.686392
 C         4.193433        -0.011071         2.087500
 O         2.817751        -0.301477         2.426049
 C         2.309626        -0.886530         1.177421
 H        -0.506467         0.485850         0.998984
 H        -0.473685         0.677413        -0.901426
 H        -0.425809        -0.977267        -0.116882
 H         2.270751         1.828107        -0.754949
 H         2.301669         1.663097         1.046735
 H         2.216856        -0.033647        -1.981139
 H         2.242849        -1.755903        -1.419837
 H         4.670295        -0.855521         2.613513
 H         4.544566         0.945384         2.505767
 H         2.155943        -2.038677         0.984895
