19
Iteration:  2145charge 0 multiplicity 1
 C        -0.194443        -0.038859         0.066318
 C         1.373746         0.032407         0.088542
 C         2.353839         1.182436         0.041830
 C         3.274546        -0.204188         0.139738
 C         2.347109        -0.649894        -0.998904
 O         4.499970        -0.422266         0.758124
 C         4.303232        -0.049815         2.057681
 O         2.877706        -0.273843         2.321787
 C         2.348129        -0.774906         1.112042
 H        -0.652908         0.130867         1.089811
 H        -0.693664         0.613169        -0.635651
 H        -0.452349        -1.074024        -0.059321
 H         2.304849         1.710142        -0.851229
 H         2.480604         1.759523         0.915367
 H         2.562879        -0.130854        -1.903700
 H         2.153895        -1.737432        -1.075494
 H         5.013792        -0.662919         2.773186
 H         4.536831         0.962098         2.320274
 H         1.946330        -1.749734         1.273006
