19
Iteration:  1692
 C        -0.164484        -0.030107        -0.011660
 C         1.338757        -0.050918         0.099678
 C         2.416938         1.151042         0.059915
 C         3.220657        -0.134082         0.137534
 C         2.293617        -0.785239        -0.959891
 O         4.541038        -0.096625         0.702213
 C         4.331131        -0.442757         2.080039
 O         2.866072        -0.106886         2.362482
 C         2.321310        -0.681104         1.188729
 H        -0.606268         0.375004         0.897459
 H        -0.632480         0.326811        -0.959918
 H        -0.504436        -1.134086        -0.062622
 H         2.372961         1.813067        -0.893787
 H         2.553805         1.835488         0.885467
 H         2.270609        -0.493527        -2.029789
 H         2.279689        -1.934848        -0.955924
 H         4.435672        -1.527653         2.203588
 H         4.923395         0.121493         2.765317
 H         2.214824        -1.775411         1.200121
