19
Iteration:  3250
 C        -0.161507        -0.062928         0.066277
 C         1.398811        -0.060220         0.001523
 C         2.432429         1.248852         0.133202
 C         3.251037        -0.098581         0.202251
 C         2.400926        -0.725359        -1.072787
 O         4.574475        -0.340217         0.735925
 C         4.275538        -0.013756         2.076680
 O         2.806483        -0.349885         2.343296
 C         2.252400        -0.792094         1.080325
 H        -0.645137         0.635004         0.908112
 H        -0.516012         0.073848        -1.023721
 H        -0.507013        -1.078765         0.410730
 H         2.219769         1.994998        -0.685596
 H         2.281343         1.530560         1.209147
 H         2.235593        -0.308383        -2.104745
 H         2.306925        -1.842966        -0.992443
 H         4.886558        -0.436957         2.861603
 H         4.226728         1.090658         2.263651
 H         2.141345        -1.917411         1.246089
