19
Iteration:  1645charge 0 multiplicity 1
 C        -0.147257         0.053027        -0.033710
 C         1.427125        -0.078447         0.119305
 C         2.269141         1.152016         0.079019
 C         3.212312        -0.117392         0.091770
 C         2.330119        -0.818167        -0.940179
 O         4.465606        -0.223098         0.699376
 C         4.281834        -0.242472         2.082074
 O         2.962904        -0.210362         2.358546
 C         2.333206        -0.769863         1.205739
 H        -0.472338         0.674286         0.898378
 H        -0.325962         0.645600        -0.944573
 H        -0.786478        -0.776543        -0.229803
 H         2.376739         1.769108        -0.735661
 H         2.144885         1.736202         0.989107
 H         2.422103        -0.361681        -1.958944
 H         2.392921        -1.869508        -1.041848
 H         4.823873        -1.083827         2.515723
 H         4.702007         0.648739         2.544437
 H         2.303374        -1.935624         1.005317
