19
Iteration:  4388
 C        -0.041091        -0.022357         0.059109
 C         1.396545        -0.052171         0.059343
 C         2.431480         1.133549         0.104749
 C         3.295066        -0.187121         0.092975
 C         2.388307        -0.770871        -0.996258
 O         4.514428        -0.269120         0.663276
 C         4.141966         0.031708         2.147012
 O         2.801110        -0.348293         2.405831
 C         2.251028        -0.726767         1.115956
 H        -0.451274         0.105468         1.030871
 H        -0.616412         0.639972        -0.629277
 H        -0.408423        -0.959050        -0.299873
 H         2.535644         1.707880        -0.823707
 H         2.380638         1.622842         1.110765
 H         2.315565        -0.151192        -1.923232
 H         2.204658        -1.919364        -1.237847
 H         4.898801        -0.685233         2.531682
 H         4.466291         1.094586         2.262166
 H         2.180184        -1.797339         1.094859
