19
Iteration:  2792charge 0 multiplicity 1
 C        -0.069045         0.042423        -0.001333
 C         1.387024        -0.099856         0.106134
 C         2.389002         1.086098         0.074814
 C         3.265413        -0.187917         0.156698
 C         2.313985        -0.690799        -1.106993
 O         4.555505        -0.206022         0.676909
 C         4.220687        -0.007100         2.106021
 O         2.803606        -0.295485         2.431859
 C         2.323866        -0.918167         1.205665
 H        -0.473371         0.453850         0.929322
 H        -0.428998         0.716347        -0.873547
 H        -0.438162        -1.017941        -0.135129
 H         2.362326         1.853101        -0.752758
 H         2.285460         1.659077         1.063960
 H         2.238400        -0.112625        -1.986903
 H         2.298427        -1.779321        -1.433958
 H         4.644391        -0.844220         2.591464
 H         4.523086         0.993630         2.523257
 H         2.188153        -1.942908         1.060196
