19
Iteration:  1360
 C        -0.103070         0.055150         0.019786
 C         1.366041        -0.075639         0.127169
 C         2.268365         1.151712         0.095836
 C         3.198470        -0.110931         0.132810
 C         2.267611        -0.763697        -0.987049
 O         4.515186        -0.180197         0.707902
 C         4.339141        -0.273050         2.073468
 O         2.934049        -0.248612         2.335963
 C         2.335018        -0.804261         1.136244
 H        -0.543734         0.505126         0.940755
 H        -0.313064         0.825056        -0.754083
 H        -0.597398        -0.775605        -0.360071
 H         2.304660         1.652890        -0.935013
 H         2.084323         1.918347         0.945618
 H         2.343985        -0.288122        -1.984641
 H         2.416947        -1.881102        -0.879990
 H         4.879133        -1.163670         2.524775
 H         4.749286         0.531147         2.693255
 H         2.343924        -1.958072         1.143220
