19
Iteration:  1609
 C        -0.143134        -0.029400         0.068899
 C         1.356740        -0.021202         0.118709
 C         2.517419         1.176109         0.092392
 C         3.244379        -0.227350         0.123651
 C         2.296916        -0.713608        -1.059625
 O         4.539139        -0.299286         0.715716
 C         4.270094        -0.059290         2.018473
 O         2.818204        -0.295566         2.382938
 C         2.290023        -0.777456         1.146883
 H        -0.555184         0.546522         0.916038
 H        -0.564773         0.502414        -0.790617
 H        -0.514287        -1.043633         0.272480
 H         2.609843         1.801330        -0.764529
 H         2.366356         1.709653         1.046065
 H         2.406930        -0.113524        -1.943851
 H         2.193744        -1.797375        -1.231692
 H         4.947142        -0.727300         2.593896
 H         4.302288         1.088271         2.188893
 H         2.017794        -1.972774         1.236590
