19
Iteration:  3868
 C        -0.123302         0.070112         0.028866
 C         1.350890        -0.126214         0.087725
 C         2.402903         1.055724         0.077443
 C         3.291352        -0.169800         0.119369
 C         2.314689        -0.761947        -0.992044
 O         4.570106        -0.155244         0.725614
 C         4.181846         0.049269         2.139535
 O         2.824156        -0.396258         2.343076
 C         2.358759        -0.811755         1.097283
 H        -0.324344         0.250843         1.084425
 H        -0.408734         1.019208        -0.600272
 H        -0.814605        -0.837434        -0.380952
 H         2.253566         1.621578        -0.819106
 H         2.555894         1.549131         1.037202
 H         2.446773        -0.480525        -2.052413
 H         2.226797        -1.860723        -1.144946
 H         4.845381        -0.656508         2.741541
 H         4.398597         1.093440         2.539752
 H         2.103466        -1.888145         1.012224
