19
Iteration:  3149
 C        -0.130292        -0.026567        -0.040393
 C         1.351642        -0.086302         0.076896
 C         2.400115         1.116439         0.047796
 C         3.210211        -0.128274         0.132527
 C         2.332218        -0.725375        -1.003974
 O         4.510938        -0.167036         0.704849
 C         4.273152        -0.135298         2.150506
 O         2.892213        -0.278385         2.408689
 C         2.299407        -0.798389         1.160415
 H        -0.739586         0.231827         0.901555
 H        -0.531067         0.781982        -0.740640
 H        -0.473399        -1.016678        -0.355276
 H         2.385010         1.676007        -0.808570
 H         2.430563         1.478841         1.038978
 H         2.415918        -0.239987        -1.917717
 H         2.422899        -1.785336        -1.271321
 H         4.892825        -0.899399         2.576795
 H         4.559169         0.847154         2.536708
 H         2.264153        -1.885029         1.155014
