19
Iteration:  3808charge 0 multiplicity 1
 C        -0.172193        -0.142405        -0.079535
 C         1.373702        -0.023671         0.072302
 C         2.384436         1.141646         0.168082
 C         3.213550        -0.111408         0.209561
 C         2.330469        -0.675702        -1.087695
 O         4.579521        -0.269222         0.686893
 C         4.337461        -0.145032         2.124349
 O         2.816686        -0.209985         2.392946
 C         2.308751        -0.775332         1.158150
 H        -0.818313         0.569009         0.589624
 H        -0.561590         0.033953        -1.176320
 H        -0.369246        -1.128912         0.283173
 H         2.516007         1.821726        -0.714227
 H         2.327685         1.834588         1.021355
 H         2.467810        -0.119303        -2.050656
 H         2.239525        -1.807235        -0.933516
 H         4.711668        -1.084824         2.465959
 H         4.667110         0.842737         2.424697
 H         2.082724        -1.854059         1.246559
