19
Iteration:  2475
 C        -0.101075         0.075675         0.044871
 C         1.413509        -0.050743         0.141548
 C         2.344202         1.080229         0.099467
 C         3.149929        -0.180528         0.091802
 C         2.442995        -0.795941        -1.018987
 O         4.479514        -0.152851         0.675324
 C         4.256068        -0.147163         2.079995
 O         2.850683        -0.233578         2.339743
 C         2.347889        -0.821124         1.183785
 H        -0.654715         0.338200         0.964815
 H        -0.455699         0.761128        -0.809496
 H        -0.585407        -0.914746        -0.201964
 H         2.496525         1.580208        -0.856915
 H         2.351536         1.666189         1.031482
 H         2.372689        -0.230751        -2.023655
 H         2.300561        -1.898018        -1.040482
 H         4.806177        -1.117216         2.372010
 H         4.536196         0.679356         2.712277
 H         2.221712        -1.946096         1.354338
