19
Iteration:  2252charge 0 multiplicity 1
 C        -0.191463         0.017062         0.070947
 C         1.343736         0.005484         0.114469
 C         2.348737         1.153651         0.051561
 C         3.268307        -0.230361         0.135860
 C         2.478809        -0.738019        -0.984117
 O         4.564169        -0.281915         0.683724
 C         4.311017        -0.083558         2.066762
 O         2.861420        -0.331878         2.397699
 C         2.212477        -0.728410         1.077140
 H        -0.535118         0.722703         0.935999
 H        -0.666611         0.367508        -0.835843
 H        -0.628751        -0.983867         0.222605
 H         2.258878         1.707903        -0.870972
 H         2.355114         1.762086         0.977506
 H         2.337621        -0.320409        -1.981099
 H         2.297875        -1.868767        -1.005677
 H         4.979640        -0.767974         2.578882
 H         4.486348         0.951592         2.371299
 H         1.966272        -1.849070         1.127150
