19
Iteration:  2634
 C        -0.120571         0.010272         0.034701
 C         1.428522         0.002764         0.032266
 C         2.290503         1.104806         0.086106
 C         3.248159        -0.211977         0.093165
 C         2.308512        -0.780333        -0.977447
 O         4.591703        -0.149416         0.730630
 C         4.271838        -0.089584         2.166460
 O         2.807466        -0.318081         2.329976
 C         2.328599        -0.786779         1.140352
 H        -0.521011         0.402739         1.043576
 H        -0.288807         0.745420        -0.738793
 H        -0.531399        -1.013094        -0.263688
 H         2.348154         1.706965        -0.811543
 H         2.412219         1.633941         1.008388
 H         2.421728        -0.408796        -1.986089
 H         1.976300        -1.788227        -0.958052
 H         4.731075        -1.010767         2.431734
 H         4.712315         0.757807         2.592629
 H         2.201406        -1.878649         1.019986
