19
Iteration:  3673
 C        -0.144440        -0.101830         0.016898
 C         1.369771        -0.014157        -0.024208
 C         2.317824         1.109368         0.087855
 C         3.213732        -0.147226         0.228074
 C         2.415954        -0.681365        -0.991729
 O         4.504582        -0.229477         0.664577
 C         4.261217        -0.231477         2.137358
 O         2.859278        -0.180119         2.371496
 C         2.325278        -0.721441         1.173521
 H        -0.664961         0.127981         1.006046
 H        -0.525392         0.491672        -0.896925
 H        -0.413174        -1.201769        -0.211297
 H         2.461118         1.704479        -0.846753
 H         2.261189         1.843489         0.902385
 H         2.678048        -0.252929        -2.029032
 H         2.463825        -1.743506        -1.129055
 H         4.726705        -1.167885         2.495862
 H         4.635448         0.694549         2.652288
 H         2.354676        -1.823387         1.162428
