19
Iteration:  3243charge 0 multiplicity 1
 C        -0.094220        -0.107799         0.044619
 C         1.325398        -0.065798         0.088752
 C         2.449596         1.226268         0.189866
 C         3.237050        -0.109616         0.078929
 C         2.376803        -0.690062        -1.040289
 O         4.561711        -0.359038         0.719677
 C         4.201658         0.031428         2.111300
 O         2.812921        -0.341818         2.330164
 C         2.265501        -0.794686         1.119441
 H        -0.435428         0.629543         0.663000
 H        -0.537599         0.194642        -0.849404
 H        -0.599609        -1.028970         0.372121
 H         2.411466         1.857519        -0.762811
 H         2.580087         1.737808         1.185714
 H         2.562140        -0.381562        -2.136171
 H         2.371170        -1.778214        -1.103761
 H         4.864425        -0.477135         2.880972
 H         4.336548         1.110251         2.155871
 H         2.224118        -1.878978         0.900731
