19
Iteration:  4235
 C        -0.184082        -0.040187         0.074810
 C         1.387634        -0.049620         0.043524
 C         2.305265         1.065925         0.082762
 C         3.234493        -0.181500         0.161135
 C         2.487417        -0.751664        -1.060744
 O         4.559453        -0.222080         0.720141
 C         4.275490        -0.179236         2.115006
 O         2.760972        -0.124670         2.351743
 C         2.322249        -0.751720         1.107586
 H        -0.686863         0.150603         1.071961
 H        -0.633515         0.705820        -0.749142
 H        -0.422101        -1.067788        -0.269961
 H         2.480403         1.851895        -0.680412
 H         2.283926         1.617600         1.079075
 H         2.581650        -0.222771        -2.015052
 H         2.301643        -1.863719        -0.937490
 H         4.667552        -1.080449         2.550251
 H         4.870789         0.616147         2.545432
 H         2.399711        -1.842104         1.178431
