19
Iteration:  1584
 C        -0.059131         0.000226         0.102956
 C         1.382495         0.059042         0.097404
 C         2.462998         1.116014         0.143182
 C         3.256497        -0.210751         0.085875
 C         2.299440        -0.667893        -1.020979
 O         4.586247        -0.424119         0.647521
 C         4.136650         0.080142         2.084031
 O         2.817877        -0.344653         2.336825
 C         2.283668        -0.808160         1.133208
 H        -0.338929         0.462808         1.012187
 H        -0.678286         0.424243        -0.673991
 H        -0.282742        -1.039226         0.467970
 H         2.509380         1.830429        -0.810272
 H         2.482362         1.655081         1.085010
 H         2.371074        -0.228905        -2.028484
 H         2.172972        -1.796409        -1.054186
 H         4.824906        -0.471187         2.792447
 H         4.093922         1.224144         2.052886
 H         2.144633        -1.937991         1.108369
