19
Iteration:  4861charge 0 multiplicity 1
 C        -0.195604         0.018635        -0.005983
 C         1.373590        -0.137907         0.097411
 C         2.340268         1.107705         0.085023
 C         3.262922        -0.178591         0.107635
 C         2.380296        -0.737589        -1.013721
 O         4.546573        -0.071168         0.728208
 C         4.248130        -0.264632         2.169628
 O         2.838787        -0.198954         2.334946
 C         2.384918        -0.795345         1.143026
 H        -0.516411         0.940960         0.551830
 H        -0.534971         0.239239        -1.085302
 H        -0.747161        -0.832972         0.507676
 H         2.350427         1.697740        -0.818719
 H         2.216357         1.673784         1.033896
 H         2.469867        -0.300948        -2.047140
 H         2.291203        -1.794575        -1.243417
 H         4.672884        -1.351089         2.378406
 H         4.777317         0.536294         2.741378
 H         2.237452        -1.971262         1.190714
