19
Iteration:  1984charge 0 multiplicity 1
 C        -0.207019        -0.032794         0.105146
 C         1.411729        -0.057889         0.063308
 C         2.309508         1.203200         0.115179
 C         3.280128        -0.090318         0.103810
 C         2.430086        -0.823431        -0.975391
 O         4.501564        -0.266632         0.659584
 C         4.305758        -0.364144         2.060750
 O         2.817697        -0.061101         2.341722
 C         2.311546        -0.707554         1.157035
 H        -0.770856         0.315714         1.005657
 H        -0.643003         0.614790        -0.716543
 H        -0.560928        -1.069856        -0.093667
 H         2.478583         1.905137        -0.787998
 H         2.268447         1.668935         1.097128
 H         2.404228        -0.365850        -1.944890
 H         2.791058        -1.874247        -1.031925
 H         4.499565        -1.335604         2.425284
 H         5.032669         0.299891         2.502785
 H         2.203788        -1.775162         1.177353
