19
Iteration:  1880charge 0 multiplicity 1
 C        -0.119384         0.027425         0.067536
 C         1.436871        -0.030711         0.044140
 C         2.405324         1.099153         0.179054
 C         3.229013        -0.221910         0.101470
 C         2.303636        -0.680693        -1.050065
 O         4.527768        -0.433432         0.632964
 C         4.312752         0.038728         2.049275
 O         2.792493        -0.267530         2.468571
 C         2.307475        -0.759157         1.124412
 H        -0.451766         0.693225         0.866056
 H        -0.529262         0.301372        -0.900777
 H        -0.551128        -1.001045         0.235468
 H         2.478322         1.879893        -0.578916
 H         2.170952         1.529907         1.231914
 H         2.350946        -0.082509        -1.999829
 H         2.263164        -1.763641        -1.244444
 H         4.942097        -0.561686         2.564483
 H         4.434135         1.103418         2.206843
 H         2.175634        -1.910929         1.020013
