19
Iteration:  4342charge 0 multiplicity 1
 C        -0.108608        -0.074207         0.008323
 C         1.342562        -0.082565         0.109400
 C         2.325422         1.105408         0.093215
 C         3.271155        -0.104762         0.163740
 C         2.399898        -0.749445        -1.004756
 O         4.537702        -0.173989         0.652922
 C         4.234835        -0.290128         2.155344
 O         2.815147        -0.150654         2.365275
 C         2.344301        -0.705591         1.124741
 H        -0.629646         0.826275         0.503978
 H        -0.352429         0.081447        -1.030091
 H        -0.770641        -0.905033         0.256567
 H         2.303690         1.656738        -0.813403
 H         2.278280         1.619836         1.057991
 H         2.606533        -0.244925        -2.054893
 H         2.485272        -1.872736        -0.952355
 H         4.733863        -1.289015         2.463119
 H         4.678361         0.605955         2.574383
 H         2.220454        -1.805880         1.119416
