19
Iteration:  2415charge 0 multiplicity 1
 C        -0.108888        -0.113492         0.087383
 C         1.371584        -0.064801         0.080175
 C         2.331872         1.183887         0.082061
 C         3.227268        -0.139821         0.114442
 C         2.458161        -0.716001        -0.986969
 O         4.484838        -0.314170         0.621288
 C         4.277058        -0.201624         2.108727
 O         2.820434        -0.165878         2.391146
 C         2.299744        -0.712930         1.145279
 H        -0.262582         0.666809         0.793253
 H        -0.546460         0.218741        -0.809688
 H        -0.528105        -1.081204         0.296020
 H         2.594709         1.786559        -0.890195
 H         2.321603         1.944153         0.923241
 H         2.305035        -0.111694        -1.846891
 H         2.424359        -1.779579        -1.269569
 H         4.677108        -1.121926         2.503296
 H         4.673663         0.740318         2.649213
 H         2.086773        -1.749379         1.092805
