19
Iteration:  2894
 C        -0.122222         0.061689         0.005701
 C         1.354071        -0.117418         0.054903
 C         2.356263         1.067279         0.128535
 C         3.278845        -0.141647         0.117446
 C         2.385113        -0.725508        -0.955162
 O         4.552510        -0.158787         0.671058
 C         4.226523        -0.109429         2.094223
 O         2.785195        -0.303889         2.364824
 C         2.355999        -0.811915         1.136589
 H        -0.520539         0.783893         0.730689
 H        -0.369712         0.291871        -0.990947
 H        -0.581548        -0.954945         0.249973
 H         2.384267         1.888182        -0.545053
 H         2.380555         1.417526         1.107766
 H         2.280236        -0.243158        -1.983999
 H         2.557214        -1.793020        -1.005451
 H         4.838286        -0.947110         2.480480
 H         4.422562         0.832170         2.588697
 H         2.104570        -1.893366         1.019412
