19
Iteration:  3903charge 0 multiplicity 1
 C        -0.076847        -0.035656         0.066550
 C         1.413238        -0.041873         0.025342
 C         2.404869         1.086159         0.128646
 C         3.241975        -0.137236         0.131892
 C         2.429776        -0.704153        -1.016769
 O         4.534620        -0.317446         0.716219
 C         4.243899         0.123121         1.992670
 O         2.746699        -0.412507         2.389098
 C         2.270950        -0.819014         1.147587
 H        -0.361605         0.299481         1.115485
 H        -0.435114         0.772256        -0.521959
 H        -0.652333        -0.958267        -0.163399
 H         2.371643         1.709329        -0.785966
 H         2.493608         1.790482         0.963494
 H         2.530620        -0.042769        -1.905810
 H         2.234091        -1.708415        -1.087760
 H         4.853234        -0.501023         2.765150
 H         4.122565         1.243161         2.182722
 H         2.122835        -1.938348         1.254320
