19
Iteration:  2329charge 0 multiplicity 1
 C        -0.162876         0.009997         0.000334
 C         1.303964        -0.038159        -0.039897
 C         2.355103         1.135556         0.081740
 C         3.205438        -0.098274         0.135618
 C         2.370472        -0.836696        -0.916165
 O         4.523238        -0.203328         0.691914
 C         4.287039        -0.210192         2.079789
 O         2.935827        -0.277123         2.424172
 C         2.266776        -0.703391         1.142388
 H        -0.509998         0.358982         1.032315
 H        -0.509832         0.683322        -0.744159
 H        -0.634048        -0.922136        -0.093465
 H         2.362635         1.652868        -0.909150
 H         2.364966         1.761639         0.978898
 H         2.591220        -0.297931        -1.836421
 H         2.482138        -1.977053        -1.022331
 H         5.006548        -0.929366         2.467307
 H         4.740119         0.725415         2.429594
 H         2.162372        -1.818024         1.248763
