19
Iteration:  1212charge 0 multiplicity 1
 C        -0.147874         0.100605         0.057007
 C         1.356355        -0.071391         0.183691
 C         2.267855         1.119456         0.152532
 C         3.248312        -0.172885         0.134579
 C         2.371632        -0.666514        -1.082478
 O         4.544676        -0.311651         0.666660
 C         4.263723        -0.044612         2.104609
 O         2.931281        -0.366398         2.330662
 C         2.334426        -0.870887         1.081269
 H        -0.542211         0.502332         1.057994
 H        -0.283435         0.882760        -0.687291
 H        -0.826366        -0.837431        -0.091961
 H         2.150835         1.819778        -0.619018
 H         2.208748         1.734165         1.105331
 H         2.425882         0.041112        -2.009661
 H         2.221850        -1.807813        -1.256761
 H         4.970896        -0.699983         2.646366
 H         4.285773         1.049592         2.365936
 H         2.359601        -1.918101         1.169121
