19
Iteration:   650
 C        -0.177504         0.135956         0.035542
 C         1.301538        -0.072785         0.062592
 C         2.456955         1.057145         0.136009
 C         3.248911        -0.235083         0.124789
 C         2.270010        -0.714773        -1.006845
 O         4.508476        -0.207844         0.686410
 C         4.241845         0.111071         2.015643
 O         2.925818        -0.484862         2.401502
 C         2.349850        -0.917111         1.184184
 H        -0.442121         0.673630         1.023930
 H        -0.459339         0.931581        -0.814133
 H        -0.690571        -0.821424         0.051032
 H         2.469070         1.582421        -0.795934
 H         2.460155         1.775131         0.994116
 H         2.435925        -0.090192        -1.841811
 H         2.383473        -1.787298        -1.297919
 H         5.146879        -0.192082         2.706317
 H         4.156799         1.225477         2.028614
 H         2.206281        -1.948398         1.132760
