19
Iteration:  3329
 C        -0.162102        -0.018987        -0.060523
 C         1.353062        -0.082423         0.070582
 C         2.305160         1.127004         0.114752
 C         3.221247        -0.102080         0.154715
 C         2.396248        -0.806526        -0.995094
 O         4.518296        -0.141091         0.654586
 C         4.291631        -0.231790         2.169358
 O         2.892890        -0.191063         2.410210
 C         2.313195        -0.795088         1.096258
 H        -0.499087         0.176060         0.953454
 H        -0.432153         0.837840        -0.695300
 H        -0.528419        -1.053005        -0.461925
 H         2.532640         1.767898        -0.784394
 H         2.103494         1.835534         0.946131
 H         2.300249        -0.282282        -2.025614
 H         2.568952        -1.896967        -1.025857
 H         4.675475        -1.242414         2.450606
 H         4.736880         0.547571         2.712272
 H         2.255537        -1.795869         1.506752
