19
Iteration:  3165
 C        -0.081016         0.019688        -0.044938
 C         1.381751        -0.101966         0.112645
 C         2.270688         1.146328         0.148993
 C         3.262221        -0.154184         0.164814
 C         2.433547        -0.782535        -0.948679
 O         4.550017        -0.176944         0.641279
 C         4.255935        -0.073083         2.062966
 O         2.799071        -0.360104         2.393366
 C         2.332551        -0.787869         1.173812
 H        -0.517783         0.286371         0.880870
 H        -0.316159         0.860934        -0.693287
 H        -0.689616        -0.817102        -0.446920
 H         2.341332         1.721811        -0.892574
 H         2.211793         2.113988         0.742306
 H         2.276280        -0.341381        -2.028678
 H         2.266429        -1.886756        -0.882464
 H         4.897555        -0.916700         2.468301
 H         4.506413         0.938518         2.419969
 H         2.087726        -1.913407         1.062477
