19
Iteration:   395
 C        -0.071823         0.121805         0.081940
 C         1.390085        -0.048341         0.101170
 C         2.418651         1.149745         0.150989
 C         3.208440        -0.158238         0.077259
 C         2.275678        -0.856034        -1.005121
 O         4.618506        -0.250876         0.654168
 C         4.184297         0.103111         2.043377
 O         2.845652        -0.440746         2.385871
 C         2.300141        -0.867251         1.120883
 H        -0.535627         0.366256         1.034578
 H        -0.404866         0.933155        -0.600967
 H        -0.517179        -0.922690        -0.102672
 H         2.291019         1.754304        -0.710030
 H         2.566680         1.780902         1.024747
 H         2.280504        -0.428488        -2.030846
 H         2.299779        -1.911724        -0.985745
 H         4.944574        -0.448957         2.702463
 H         4.013587         1.188604         2.296309
 H         2.088849        -1.937535         1.097620
