19
Iteration:  2908
 C        -0.086847         0.020443         0.001547
 C         1.417692        -0.119338         0.108753
 C         2.301376         1.191986         0.201555
 C         3.230928        -0.116185         0.164012
 C         2.410173        -0.782306        -1.001991
 O         4.509075        -0.163190         0.667962
 C         4.236718        -0.151062         2.123844
 O         2.821073        -0.280678         2.306276
 C         2.295187        -0.869460         1.103810
 H        -0.212700         0.944416         0.652857
 H        -0.345754         0.439408        -0.970925
 H        -0.559055        -0.902557         0.311489
 H         2.355255         1.552660        -0.822258
 H         2.141962         1.970244         0.971410
 H         2.497746        -0.301975        -2.092415
 H         2.280972        -1.884450        -1.123874
 H         4.755633        -0.997324         2.718141
 H         4.570498         0.855899         2.460367
 H         2.481228        -2.009246         1.103741
