19
Iteration:   909
 C        -0.120019         0.004695         0.179747
 C         1.391806         0.006425         0.162886
 C         2.388142         1.134286         0.115913
 C         3.203576        -0.194606         0.095052
 C         2.337284        -0.659640        -1.094695
 O         4.625840        -0.299808         0.700371
 C         4.245183         0.009439         2.008012
 O         2.833530        -0.389451         2.337222
 C         2.290171        -0.860449         1.103097
 H        -0.599374         0.509541         1.006529
 H        -0.466318         0.610483        -0.700925
 H        -0.526604        -1.088526         0.167700
 H         2.430218         1.792770        -0.766755
 H         2.240500         1.662212         1.109201
 H         2.260379        -0.079209        -1.970616
 H         2.092965        -1.684508        -1.265968
 H         4.833366        -0.502344         2.822390
 H         4.297426         1.051606         2.275321
 H         2.175258        -1.880327         1.093167
