19
Iteration:  2591
 C        -0.156225         0.030436         0.053500
 C         1.336933        -0.072983         0.054731
 C         2.305644         1.146654         0.074066
 C         3.274219        -0.160439         0.158756
 C         2.403416        -0.744546        -1.029640
 O         4.594198        -0.256142         0.688999
 C         4.270692        -0.179328         2.143804
 O         2.815217        -0.217124         2.355827
 C         2.317787        -0.804903         1.108867
 H        -0.562103         0.605897         0.971293
 H        -0.561205         0.318603        -0.915956
 H        -0.438361        -1.072401         0.279041
 H         2.153396         1.906451        -0.735041
 H         2.181271         1.650726         1.042504
 H         2.554879        -0.044613        -1.846839
 H         2.334564        -1.757057        -1.341343
 H         4.888816        -0.968186         2.608835
 H         4.502620         0.898519         2.521914
 H         2.282384        -1.890575         1.141473
