19
Iteration:  1548charge 0 multiplicity 1
 C        -0.143347         0.159262         0.059568
 C         1.357551        -0.079186         0.124630
 C         2.378408         1.067646         0.096539
 C         3.222217        -0.211308         0.133257
 C         2.378422        -0.735986        -1.046688
 O         4.511587        -0.303772         0.689351
 C         4.215466         0.006736         2.060150
 O         2.900683        -0.338154         2.349823
 C         2.328520        -0.868168         1.147989
 H        -0.257506         0.644761         1.122973
 H        -0.687632         0.817785        -0.642691
 H        -0.561247        -0.823988        -0.001703
 H         2.309246         1.737791        -0.839802
 H         2.245404         1.712475         1.042001
 H         2.454601        -0.117905        -2.033996
 H         2.416379        -1.830394        -1.055154
 H         4.957780        -0.462382         2.703180
 H         4.407256         1.054498         2.214330
 H         2.188131        -1.886902         1.171075
