19
Iteration:  4710charge 0 multiplicity 1
 C        -0.091507         0.024823         0.044183
 C         1.344130        -0.054940         0.085667
 C         2.446701         1.106324         0.060802
 C         3.223521        -0.219037         0.117383
 C         2.289531        -0.731737        -1.050691
 O         4.571997        -0.160793         0.724135
 C         4.172846        -0.021377         2.180615
 O         2.859408        -0.414262         2.350750
 C         2.311918        -0.816814         1.144695
 H        -0.458171         0.810160         0.740478
 H        -0.392826         0.123943        -0.946185
 H        -0.596566        -0.987447         0.111516
 H         2.630593         1.709499        -0.935334
 H         2.356189         1.766210         1.017706
 H         2.579770        -0.000261        -1.900047
 H         1.980597        -1.756622        -1.168114
 H         4.909427        -0.475934         2.735352
 H         4.315945         1.097660         2.339090
 H         2.321507        -1.886212         1.032992
