19
Iteration:  1270charge 0 multiplicity 1
 C        -0.171350         0.065078         0.117776
 C         1.319617        -0.047478         0.107864
 C         2.439894         1.148813         0.054854
 C         3.230746        -0.127643         0.143186
 C         2.316327        -0.671714        -1.018353
 O         4.522384        -0.255013         0.701164
 C         4.288048        -0.027275         2.105499
 O         2.863715        -0.484894         2.334788
 C         2.335421        -0.834055         1.106289
 H        -0.272044         0.739442         0.905818
 H        -0.589440         0.561385        -0.780890
 H        -0.760713        -0.829651         0.359905
 H         2.378492         1.708587        -0.919169
 H         2.396869         1.726006         0.952244
 H         2.317379        -0.130123        -1.962480
 H         2.444164        -1.802437        -1.248400
 H         5.053155        -0.636747         2.588536
 H         4.432781         0.992793         2.454461
 H         2.231395        -1.915000         0.884799
