19
Iteration:  1594
 C        -0.062371        -0.033915         0.161027
 C         1.429210         0.026432         0.043500
 C         2.478994         1.107568         0.177073
 C         3.218215        -0.226338         0.106087
 C         2.299181        -0.678128        -1.007179
 O         4.466145        -0.389595         0.637755
 C         4.176963         0.094399         2.153020
 O         2.876388        -0.327010         2.311885
 C         2.243621        -0.796426         1.079504
 H        -0.484164         0.601782         0.900053
 H        -0.505930         0.308008        -0.800524
 H        -0.374184        -1.110570         0.114980
 H         2.701909         1.696089        -0.843400
 H         2.767680         1.738647         0.997592
 H         2.358817        -0.105470        -1.959191
 H         2.088359        -1.790384        -1.087178
 H         4.852227        -0.484856         2.837019
 H         4.479918         1.156164         2.287030
 H         2.139721        -1.820474         1.015555
