19
Iteration:  1340
 C        -0.199164        -0.032715        -0.059368
 C         1.309144        -0.034228         0.154324
 C         2.373849         1.120090         0.161048
 C         3.297225        -0.221147         0.114787
 C         2.280006        -0.668457        -0.988801
 O         4.611889        -0.243167         0.546242
 C         4.319093        -0.189148         2.145040
 O         2.848522        -0.213602         2.391466
 C         2.313397        -0.755621         1.184409
 H        -0.703364         0.306112         0.891899
 H        -0.591904         0.549387        -0.863398
 H        -0.503777        -0.991706        -0.277653
 H         2.381406         1.889233        -0.653831
 H         2.546995         1.591965         1.207487
 H         2.230285         0.022068        -1.851941
 H         2.043669        -1.669393        -1.264249
 H         4.817439        -1.079968         2.561476
 H         4.844479         0.645918         2.566456
 H         2.163600        -1.924352         1.354041
