19
Iteration:  2166charge 0 multiplicity 1
 C        -0.087463         0.023928         0.039543
 C         1.328850        -0.129833         0.036949
 C         2.378751         1.172016         0.153576
 C         3.199109        -0.168147         0.162602
 C         2.303370        -0.700833        -1.089639
 O         4.623213        -0.441343         0.602606
 C         4.253541         0.010461         2.070824
 O         2.826662        -0.271452         2.466381
 C         2.292033        -0.731687         1.160197
 H        -0.500988         0.413140         1.081584
 H        -0.271902         0.714138        -0.779184
 H        -0.586964        -0.953246        -0.047003
 H         2.468282         1.744943        -0.685557
 H         2.163880         1.719723         1.031046
 H         2.293892        -0.087100        -1.974839
 H         2.396404        -1.807567        -1.187396
 H         4.979198        -0.583812         2.769022
 H         4.505497         1.033266         2.240329
 H         2.250924        -1.854245         1.252221
