19
Iteration:    59
 C        -0.072960        -0.177403         0.006824
 C         1.373504        -0.011002         0.089562
 C         2.340486         1.258677         0.062888
 C         3.256133        -0.004979         0.138419
 C         2.242226        -0.775855        -0.836019
 O         4.585074        -0.076472         0.591009
 C         4.213517        -0.561403         2.100709
 O         2.906678        -0.124475         2.372658
 C         2.303193        -0.672454         1.147803
 H        -0.617219         0.282931         0.764093
 H        -0.439269         0.366554        -1.061942
 H        -0.436461        -1.244063        -0.125950
 H         2.351820         1.633017        -0.959262
 H         2.369168         1.851964         1.019402
 H         2.164024        -0.419342        -1.922524
 H         2.400072        -1.844042        -0.653952
 H         4.245372        -1.724107         2.178011
 H         4.847065         0.068040         2.768732
 H         2.293030        -1.747865         1.266575
