19
Iteration:  3756charge 0 multiplicity 1
 C        -0.177576        -0.085687         0.003461
 C         1.387923        -0.035094        -0.043418
 C         2.309411         1.188635         0.053498
 C         3.245873        -0.152464         0.207060
 C         2.464434        -0.777253        -0.966557
 O         4.517296        -0.110976         0.666807
 C         4.246130        -0.301725         2.151199
 O         2.858976        -0.199221         2.401103
 C         2.323262        -0.765190         1.127340
 H        -0.492457         0.654194         0.792822
 H        -0.839476         0.358729        -0.889596
 H        -0.630822        -1.083722         0.244418
 H         2.436019         1.811765        -0.823506
 H         2.386952         1.695673         1.011217
 H         2.518751        -0.161378        -1.848731
 H         2.269597        -1.892857        -1.075770
 H         4.624990        -1.326670         2.422523
 H         4.660214         0.617647         2.667015
 H         2.368618        -1.902475         1.234441
