19
Iteration:  4662charge 0 multiplicity 1
 C        -0.098680        -0.085443         0.018654
 C         1.400627        -0.010461         0.063073
 C         2.304559         1.222410         0.177454
 C         3.234268        -0.168790         0.157010
 C         2.413754        -0.720197        -1.091790
 O         4.522879        -0.333701         0.647010
 C         4.271261        -0.103562         2.135908
 O         2.827461        -0.189393         2.401929
 C         2.283071        -0.801013         1.128686
 H        -0.522692         0.573417         0.722565
 H        -0.431799         0.081337        -1.077233
 H        -0.503818        -1.089489        -0.042233
 H         2.287205         1.747711        -0.695734
 H         2.236405         1.725578         1.122463
 H         2.441768        -0.150057        -1.906123
 H         2.547667        -1.784610        -1.132504
 H         4.804026        -0.981036         2.615940
 H         4.780090         0.819905         2.448029
 H         1.963112        -1.911170         1.308572
