19
Iteration:  4609
 C        -0.084980        -0.013085        -0.019763
 C         1.380713        -0.018494         0.086126
 C         2.317515         1.109002         0.027321
 C         3.238420        -0.118919         0.110753
 C         2.384060        -0.862767        -0.945274
 O         4.552817        -0.084749         0.699971
 C         4.246939        -0.301283         2.124814
 O         2.830674        -0.259612         2.385114
 C         2.309523        -0.667528         1.183856
 H        -0.597410         0.146783         0.883314
 H        -0.477241         0.821052        -0.701162
 H        -0.453244        -0.986547        -0.458620
 H         2.136555         1.796967        -0.772780
 H         2.367503         1.779966         0.913176
 H         2.440896        -0.477249        -2.015122
 H         2.161151        -1.975264        -0.901253
 H         4.668585        -1.236584         2.345360
 H         4.773608         0.544585         2.605814
 H         2.253974        -1.764285         1.143456
