19
Iteration:  4610charge 0 multiplicity 1
 C        -0.087777        -0.009653        -0.026879
 C         1.388730        -0.015995         0.102263
 C         2.308388         1.103269         0.029132
 C         3.240998        -0.125336         0.108937
 C         2.384360        -0.859151        -0.952170
 O         4.556114        -0.085701         0.698530
 C         4.241242        -0.304996         2.126899
 O         2.835153        -0.252589         2.388750
 C         2.302584        -0.675490         1.177386
 H        -0.574525         0.152172         0.909141
 H        -0.499427         0.774298        -0.712090
 H        -0.456135        -0.990573        -0.488092
 H         2.157443         1.837223        -0.795294
 H         2.385578         1.796030         0.948699
 H         2.423293        -0.475581        -2.086189
 H         2.135005        -1.969690        -0.880497
 H         4.702672        -1.225106         2.370613
 H         4.759221         0.566988         2.615848
 H         2.280687        -1.742587         1.152165
