19
Iteration:  1533charge 0 multiplicity 1
 C        -0.099718         0.146817         0.058645
 C         1.392349        -0.064758         0.029814
 C         2.321107         1.107541         0.149047
 C         3.253166        -0.248966         0.135248
 C         2.333775        -0.805756        -0.962930
 O         4.566138        -0.191385         0.591994
 C         4.287153        -0.049706         2.040535
 O         2.822557        -0.340123         2.426754
 C         2.296256        -0.824936         1.164721
 H        -0.531826         0.502435         1.034808
 H        -0.215288         0.836854        -0.822894
 H        -0.795654        -0.710831        -0.156241
 H         2.446341         1.689817        -0.708966
 H         2.328601         1.693692         1.060880
 H         2.360047        -0.338931        -1.925210
 H         2.174530        -1.846330        -1.262234
 H         4.886300        -0.807777         2.530915
 H         4.423723         0.961657         2.419842
 H         2.211553        -1.949073         1.361229
