19
Iteration:  4656
 C        -0.090668        -0.092103        -0.036660
 C         1.371262        -0.038236         0.080223
 C         2.292074         1.156966         0.181830
 C         3.226481        -0.198241         0.100833
 C         2.429113        -0.683186        -1.044403
 O         4.544451        -0.311281         0.666850
 C         4.283391        -0.143800         2.121108
 O         2.819095        -0.154999         2.425842
 C         2.279210        -0.798607         1.141835
 H        -0.568895         0.550101         0.759638
 H        -0.458058         0.337160        -0.952056
 H        -0.461036        -1.164610         0.121134
 H         2.394730         1.912429        -0.717595
 H         2.296122         1.873087         1.079950
 H         2.346851        -0.073994        -2.091961
 H         2.472061        -1.787613        -1.243494
 H         4.792691        -0.987201         2.549740
 H         4.768613         0.830729         2.403797
 H         2.023695        -1.809448         1.287107
