19
Iteration:  3587charge 0 multiplicity 1
 C        -0.082943         0.074576         0.002912
 C         1.392352        -0.098877         0.081409
 C         2.279049         1.158903         0.100163
 C         3.244769        -0.149989         0.169955
 C         2.412068        -0.781487        -0.976775
 O         4.539607        -0.194159         0.670752
 C         4.244495         0.002035         2.169353
 O         2.825156        -0.388088         2.365284
 C         2.316407        -0.895297         1.081775
 H        -0.372389         0.949637         0.632962
 H        -0.561290         0.455602        -0.931546
 H        -0.619855        -0.808614         0.216822
 H         2.188803         1.648149        -0.885057
 H         2.214894         1.771167         0.998249
 H         2.362191        -0.308643        -2.014138
 H         2.539411        -1.823701        -1.064677
 H         5.021835        -0.621499         2.522423
 H         4.451755         0.954859         2.521304
 H         2.179392        -1.971403         1.097994
