19
Iteration:  2305
 C        -0.171829        -0.024373         0.064660
 C         1.365508        -0.036452         0.110348
 C         2.385472         1.162860         0.077969
 C         3.242599        -0.223903         0.118746
 C         2.325636        -0.694879        -1.026799
 O         4.587559        -0.288803         0.636583
 C         4.248623        -0.176790         2.140756
 O         2.819841        -0.177012         2.336884
 C         2.352272        -0.779122         1.211081
 H        -0.755863         0.274768         0.859300
 H        -0.377943         0.533328        -0.807009
 H        -0.476000        -1.035722        -0.217755
 H         2.360675         1.792380        -0.870487
 H         2.290518         1.718552         1.077570
 H         2.354390        -0.184771        -1.989794
 H         2.309334        -1.828347        -1.115351
 H         4.888460        -0.888732         2.602881
 H         4.618639         0.847225         2.481350
 H         2.205888        -1.847949         1.256883
