19
Iteration:  4247
 C        -0.157153        -0.076121         0.023899
 C         1.330453        -0.087158         0.029394
 C         2.386290         1.166824         0.137850
 C         3.259086        -0.090827         0.103915
 C         2.469040        -0.825811        -0.982866
 O         4.548328        -0.161285         0.660585
 C         4.258696        -0.284551         2.107119
 O         2.794654        -0.138480         2.363209
 C         2.279751        -0.706594         1.181182
 H        -0.568349         0.211024         1.017278
 H        -0.643211         0.666116        -0.821761
 H        -0.606647        -1.123964        -0.165810
 H         2.430544         1.735691        -0.842001
 H         2.340052         1.736931         1.140889
 H         2.558252        -0.468518        -1.999929
 H         2.706522        -1.947781        -1.091306
 H         4.550789        -1.272952         2.442050
 H         4.588270         0.598705         2.687371
 H         2.156382        -1.822379         1.259100
