19
Iteration:  3660charge 0 multiplicity 1
 C        -0.107890        -0.162343        -0.046785
 C         1.385817        -0.085232         0.097499
 C         2.362300         1.238125         0.096964
 C         3.227150        -0.064849         0.117134
 C         2.444774        -0.670094        -0.981752
 O         4.527136        -0.294697         0.630697
 C         4.248771        -0.211004         2.167503
 O         2.836346        -0.173439         2.409056
 C         2.234495        -0.777068         1.129896
 H        -0.466686         0.384642         0.800186
 H        -0.622322         0.361040        -0.814904
 H        -0.488517        -1.246095        -0.045335
 H         2.483112         1.726606        -0.870938
 H         2.278844         1.761265         1.041837
 H         2.270304        -0.063009        -1.887832
 H         2.387989        -1.754658        -1.093722
 H         4.752678        -1.066089         2.693667
 H         4.838402         0.743438         2.453062
 H         2.119752        -1.908495         1.335263
