19
Iteration:  3670
 C        -0.144409        -0.107916         0.011455
 C         1.337960        -0.028967        -0.018669
 C         2.330800         1.111114         0.087210
 C         3.224398        -0.124070         0.232922
 C         2.436848        -0.660725        -1.002863
 O         4.499025        -0.245920         0.642975
 C         4.247510        -0.239091         2.162888
 O         2.866128        -0.167879         2.376531
 C         2.313923        -0.732908         1.182728
 H        -0.563503         0.134389         0.917172
 H        -0.408431         0.404423        -0.818960
 H        -0.327940        -1.172034        -0.163043
 H         2.478107         1.706569        -0.810168
 H         2.276072         1.859137         0.870589
 H         2.547154        -0.218027        -1.993164
 H         2.448455        -1.771549        -1.052622
 H         4.755455        -1.171218         2.494416
 H         4.617947         0.770512         2.540750
 H         2.280282        -1.869103         1.051480
