19
Iteration:  1859charge 0 multiplicity 1
 C        -0.126591        -0.057378         0.030730
 C         1.374338         0.066664         0.179579
 C         2.441940         1.184783         0.195274
 C         3.190789        -0.237267         0.178574
 C         2.258537        -0.683120        -0.979411
 O         4.601085        -0.417591         0.699639
 C         4.242579         0.003046         2.065273
 O         2.879672        -0.275779         2.228050
 C         2.297299        -0.811250         1.088357
 H        -0.707352         0.405534         0.862048
 H        -0.416701         0.451584        -0.888720
 H        -0.644420        -1.041432        -0.058204
 H         2.462225         1.656515        -0.805841
 H         2.594389         1.852070         1.179581
 H         2.422645        -0.140854        -1.956764
 H         2.243598        -1.774044        -1.110146
 H         4.807728        -0.474855         2.754053
 H         4.414618         1.086554         2.052072
 H         1.903785        -1.865928         1.241970
