19
Iteration:   684charge 0 multiplicity 1
 C        -0.144327         0.062499         0.009786
 C         1.412616        -0.031884         0.131859
 C         2.281200         1.167997         0.144624
 C         3.210780        -0.115341         0.014813
 C         2.342367        -0.835853        -0.934349
 O         4.522917        -0.214123         0.631123
 C         4.302353        -0.144602         2.061821
 O         2.883910        -0.349704         2.417440
 C         2.338877        -0.777295         1.137029
 H        -0.585809         0.422995         1.055819
 H        -0.482002         0.773047        -0.903812
 H        -0.581432        -0.831504        -0.366902
 H         2.151499         1.832091        -0.686187
 H         2.419362         1.708497         1.156662
 H         2.316532        -0.409966        -1.872788
 H         2.428306        -1.950249        -0.918314
 H         5.050371        -0.886044         2.650760
 H         4.474444         0.931055         2.364476
 H         2.288522        -1.823311         1.168973
