19
Iteration:  1966charge 0 multiplicity 1
 C        -0.168940        -0.004351         0.066273
 C         1.332503        -0.043448         0.127208
 C         2.362602         1.113479         0.086946
 C         3.190758        -0.186739         0.126466
 C         2.431390        -0.771724        -0.983700
 O         4.649785        -0.175971         0.608446
 C         4.213085        -0.278909         2.108331
 O         2.866351        -0.166451         2.347787
 C         2.254600        -0.721469         1.133335
 H        -0.515388         0.442052         0.982754
 H        -0.600022         0.727096        -0.634357
 H        -0.674681        -1.000858        -0.043448
 H         2.339547         1.610681        -0.833589
 H         2.505285         1.805725         0.890601
 H         2.564397        -0.380987        -2.027982
 H         2.064337        -1.791801        -1.002654
 H         4.826125        -1.300788         2.468412
 H         4.595861         0.547041         2.790766
 H         2.162938        -1.800155         1.340781
