19
Iteration:  3135charge 0 multiplicity 1
 C        -0.229086        -0.091630        -0.039308
 C         1.369235        -0.017634         0.014852
 C         2.357301         1.174026         0.171161
 C         3.254971        -0.220775         0.151135
 C         2.316970        -0.735956        -1.066063
 O         4.574526        -0.191845         0.683701
 C         4.304349        -0.133019         2.184221
 O         2.832544        -0.235314         2.366176
 C         2.357171        -0.787157         1.154281
 H        -0.419263         0.212748         1.034387
 H        -0.485654         0.542669        -0.921223
 H        -0.627507        -1.173342        -0.237119
 H         2.577035         1.675194        -0.852190
 H         2.424734         2.032413         0.899763
 H         2.389148        -0.090789        -1.989881
 H         2.068435        -1.747481        -1.042827
 H         4.720276        -1.093410         2.659546
 H         4.695571         0.767383         2.722677
 H         2.287541        -1.887709         1.298737
