19
Iteration:  4509charge 0 multiplicity 1
 C        -0.143063        -0.120038        -0.013792
 C         1.370398        -0.082638         0.041306
 C         2.351579         1.184389         0.069609
 C         3.195146        -0.089719         0.175440
 C         2.359423        -0.651851        -1.072170
 O         4.617035        -0.268314         0.759595
 C         4.324837        -0.210077         2.091647
 O         2.827437        -0.246713         2.380344
 C         2.244804        -0.697424         1.211343
 H        -0.616618         0.631819         0.586256
 H        -0.592671        -0.041877        -1.077530
 H        -0.502927        -1.021559         0.418105
 H         2.339090         1.557359        -0.967862
 H         2.368690         1.882626         0.870121
 H         2.495493        -0.102968        -1.983055
 H         2.365464        -1.838953        -1.149955
 H         4.832991        -1.081645         2.464006
 H         4.660263         0.668930         2.606778
 H         2.017976        -1.746595         1.172585
