19
Iteration:    78
 C        -0.138631        -0.070334         0.025776
 C         1.378408         0.006939         0.124711
 C         2.334452         1.165991        -0.045669
 C         3.238504        -0.139362         0.133396
 C         2.344549        -0.791045        -1.011152
 O         4.480693        -0.039168         0.707132
 C         4.323752        -0.424657         2.036467
 O         2.906391        -0.234772         2.476589
 C         2.307999        -0.652186         1.187904
 H        -0.571102         0.502477         0.804026
 H        -0.552923         0.283121        -0.897666
 H        -0.468750        -1.125907         0.050546
 H         2.358832         1.676484        -1.021870
 H         2.380238         1.818273         0.877172
 H         2.400981        -0.254899        -2.001107
 H         2.093790        -1.835835        -1.045466
 H         4.439955        -1.456631         2.050538
 H         4.955810         0.048462         2.766660
 H         2.218161        -1.747647         1.280688
