19
Iteration:  2679
 C        -0.097600        -0.049301        -0.057383
 C         1.409182        -0.000421         0.126881
 C         2.278121         1.191789         0.151549
 C         3.219031        -0.182315         0.169694
 C         2.408685        -0.737426        -1.028931
 O         4.542792        -0.250585         0.656528
 C         4.280635        -0.207810         2.088350
 O         2.838600        -0.229777         2.387668
 C         2.256107        -0.774769         1.158856
 H        -0.550275         0.410350         0.931355
 H        -0.583686         0.595006        -0.822663
 H        -0.428848        -1.115947        -0.113847
 H         2.398990         1.615471        -0.867184
 H         2.284830         1.853390         1.022424
 H         2.680464        -0.259038        -2.000075
 H         2.495755        -1.784505        -1.076329
 H         4.966966        -0.851926         2.624140
 H         4.435254         0.853062         2.233284
 H         2.061415        -1.852026         1.269363
