19
Iteration:  2934
 C        -0.193822        -0.054011         0.018398
 C         1.367138        -0.062125         0.043574
 C         2.320835         1.110282         0.077452
 C         3.271348        -0.106295         0.127085
 C         2.397329        -0.707431        -1.032390
 O         4.558624        -0.200698         0.682961
 C         4.285700        -0.220350         2.175292
 O         2.828194        -0.282254         2.375566
 C         2.311230        -0.717233         1.161117
 H        -0.471394         0.674698         0.755038
 H        -0.542917         0.457434        -0.959083
 H        -0.402514        -1.120338         0.192861
 H         2.376653         1.680689        -0.900856
 H         2.278559         1.741142         1.054515
 H         2.316738        -0.120418        -1.882478
 H         2.500388        -1.782119        -1.345822
 H         4.704173        -1.033386         2.761108
 H         4.652639         0.792297         2.452987
 H         2.195717        -1.821891         1.303350
