19
Iteration:  4088charge 0 multiplicity 1
 C        -0.094919        -0.094457        -0.030672
 C         1.372279        -0.064159         0.053011
 C         2.326250         1.157866         0.069690
 C         3.225011        -0.143237         0.206045
 C         2.411287        -0.685472        -0.928858
 O         4.511890        -0.220190         0.694785
 C         4.285853        -0.206261         2.152451
 O         2.837388        -0.203122         2.347909
 C         2.280537        -0.754417         1.102124
 H        -0.653782         0.394629         0.915667
 H        -0.489384         0.439158        -0.884768
 H        -0.386989        -1.227801        -0.041197
 H         2.335041         1.594559        -0.940231
 H         2.359007         1.875394         0.883539
 H         2.526340         0.006904        -1.943732
 H         2.292268        -1.839218        -1.001606
 H         4.736263        -1.188519         2.422647
 H         4.788756         0.684270         2.433598
 H         2.141832        -1.825007         1.204334
