19
Iteration:  4741charge 0 multiplicity 1
 C        -0.111339         0.125359         0.044795
 C         1.376502        -0.136644         0.080175
 C         2.348019         1.135113         0.170425
 C         3.193775        -0.141326         0.099135
 C         2.426413        -0.810423        -1.028420
 O         4.623473        -0.218195         0.670060
 C         4.255755         0.037084         2.049901
 O         2.750607        -0.408044         2.404340
 C         2.291133        -0.839959         1.114003
 H        -0.532112         0.604221         0.934646
 H        -0.194932         0.853653        -0.835849
 H        -0.688146        -0.866371         0.027984
 H         2.444605         1.719971        -0.695411
 H         2.226301         1.494796         1.235107
 H         2.597916        -0.450696        -2.030280
 H         2.354143        -1.855524        -1.157726
 H         4.889486        -0.441403         2.805379
 H         4.044637         1.154133         2.206654
 H         2.424048        -1.976004         1.171929
