19
Iteration:  4029charge 0 multiplicity 1
 C        -0.129177        -0.071946         0.106833
 C         1.407354        -0.108648         0.086606
 C         2.374994         1.155965         0.031429
 C         3.229237        -0.138212         0.146493
 C         2.456594        -0.777580        -1.021274
 O         4.550011        -0.036550         0.756037
 C         4.214914        -0.359651         2.034148
 O         2.790134        -0.124115         2.351497
 C         2.251569        -0.733963         1.135377
 H        -0.573908         0.182078         0.987447
 H        -0.415013         0.457608        -0.849395
 H        -0.347689        -1.093231        -0.195734
 H         2.511479         1.725510        -0.910218
 H         2.361366         1.857478         0.908827
 H         2.308765        -0.299171        -2.023573
 H         2.540756        -1.946805        -1.162905
 H         4.333749        -1.469216         2.337204
 H         4.939591         0.096822         2.807756
 H         2.144922        -1.859514         1.361007
