19
Iteration:  4825charge 0 multiplicity 1
 C        -0.114629        -0.082741         0.004751
 C         1.406983        -0.038127         0.074322
 C         2.348843         1.189421         0.119825
 C         3.236131        -0.129465         0.098905
 C         2.418225        -0.725726        -0.991672
 O         4.447366        -0.275134         0.728950
 C         4.292680        -0.153652         2.059403
 O         2.822785        -0.261172         2.360103
 C         2.329918        -0.721108         1.166632
 H        -0.518935         0.401797         0.825610
 H        -0.480664         0.356412        -0.965107
 H        -0.513850        -1.074879        -0.120451
 H         2.300707         1.880890        -0.756497
 H         2.304547         1.828013         1.061003
 H         2.454643        -0.181067        -1.908645
 H         2.382597        -1.887544        -0.890777
 H         4.868133        -1.041570         2.549714
 H         4.588345         0.721905         2.509887
 H         2.186992        -1.830073         1.099463
