19
Iteration:  4889
 C        -0.084114        -0.046254         0.021157
 C         1.445625        -0.063307         0.084818
 C         2.378713         1.164146         0.055649
 C         3.255174        -0.125830         0.124478
 C         2.355181        -0.801741        -0.954619
 O         4.516656         0.011763         0.671371
 C         4.211999        -0.348724         2.102793
 O         2.796195        -0.268423         2.366388
 C         2.312243        -0.744094         1.129690
 H        -0.435965         0.888915         0.537267
 H        -0.500702         0.135171        -0.961621
 H        -0.448353        -0.974271         0.404623
 H         2.508461         1.867325        -0.824005
 H         2.201249         1.813580         0.970103
 H         2.427283        -0.518864        -1.987781
 H         2.271303        -1.958602        -0.702538
 H         4.485727        -1.384068         2.272648
 H         4.817559         0.278384         2.831512
 H         2.084514        -1.785285         1.299243
