19
Iteration:  4240charge 0 multiplicity 1
 C        -0.171676        -0.035354         0.074746
 C         1.360194        -0.061512         0.029219
 C         2.331630         1.079494         0.119734
 C         3.235435        -0.130471         0.120263
 C         2.490106        -0.781260        -1.027342
 O         4.563566        -0.198577         0.698136
 C         4.268556        -0.224485         2.102709
 O         2.759883        -0.125856         2.359873
 C         2.305281        -0.717641         1.155930
 H        -0.738803         0.156785         0.965598
 H        -0.693410         0.536520        -0.726738
 H        -0.511784        -1.064647        -0.329846
 H         2.536920         1.817346        -0.665804
 H         2.324067         1.656974         1.034065
 H         2.624909        -0.448374        -2.075941
 H         2.506379        -1.896839        -1.078262
 H         4.680179        -1.212177         2.503071
 H         4.838517         0.622973         2.609377
 H         2.334734        -1.857459         1.147954
