19
Iteration:  1519
 C        -0.128353         0.106423        -0.041370
 C         1.342803        -0.118955         0.168413
 C         2.435200         1.073511         0.132894
 C         3.155721        -0.145882         0.149558
 C         2.268815        -0.792277        -0.993979
 O         4.549762        -0.174847         0.611361
 C         4.391040        -0.087315         2.102451
 O         2.810374        -0.316421         2.363341
 C         2.298009        -0.803322         1.170124
 H        -0.428497         0.564854         0.831423
 H        -0.402964         0.896142        -0.711141
 H        -0.649005        -0.877723        -0.256110
 H         2.482705         1.767710        -0.745498
 H         2.437921         1.571446         1.044642
 H         2.382459        -0.379749        -1.972134
 H         2.312657        -1.843967        -0.749267
 H         4.948547        -0.961476         2.560556
 H         4.750527         0.965198         2.457140
 H         2.155772        -1.975375         0.901689
