19
Iteration:   427charge 0 multiplicity 1
 C        -0.118071         0.064625         0.146398
 C         1.336091        -0.087551         0.092535
 C         2.423626         1.122928         0.146727
 C         3.222375        -0.218575         0.137653
 C         2.323973        -0.664470        -1.058931
 O         4.595665        -0.382145         0.719968
 C         4.179847         0.141056         2.009687
 O         2.868535        -0.356110         2.326267
 C         2.275628        -0.905520         1.108306
 H        -0.187327         0.662906         1.105529
 H        -0.665385         0.429809        -0.725579
 H        -0.576274        -0.990302         0.122161
 H         2.495915         1.614332        -0.766023
 H         2.427467         1.833304         0.981867
 H         2.534147        -0.055750        -1.965298
 H         2.468820        -1.640806        -1.352727
 H         4.925153        -0.150252         2.844240
 H         4.254870         1.263270         2.016877
 H         2.088065        -1.944138         1.224501
