19
Iteration:  3971charge 0 multiplicity 1
 C        -0.126872        -0.039916        -0.097692
 C         1.348067        -0.080091         0.096222
 C         2.321284         1.180665         0.099351
 C         3.229756        -0.185945         0.127812
 C         2.414193        -0.722269        -0.944053
 O         4.515609        -0.139393         0.632146
 C         4.299846        -0.184949         2.125026
 O         2.844739        -0.310532         2.408469
 C         2.334202        -0.748896         1.229466
 H        -0.691503         0.788885         0.444615
 H        -0.391087         0.153324        -1.098965
 H        -0.558996        -0.962603         0.155849
 H         2.316552         1.775677        -0.860277
 H         2.501840         1.773924         1.021375
 H         2.425952        -0.277224        -1.911004
 H         2.168613        -1.783053        -1.015496
 H         4.742162        -1.169693         2.541405
 H         4.477034         0.832242         2.566677
 H         2.314132        -1.898791         1.090005
