19
Iteration:    91
 C        -0.220794        -0.013665         0.083500
 C         1.307276        -0.059096         0.046727
 C         2.369196         1.131027        -0.011350
 C         3.186420        -0.145652         0.138418
 C         2.394539        -0.758152        -0.995143
 O         4.532335        -0.003710         0.721706
 C         4.322693        -0.416257         2.120214
 O         2.965431        -0.247156         2.406248
 C         2.228565        -0.758592         1.152353
 H        -0.544886         0.630889         0.776626
 H        -0.446124         0.488759        -0.978900
 H        -0.756376        -0.965892         0.304103
 H         2.443568         1.630544        -1.012855
 H         2.468664         2.026986         0.697665
 H         2.416696        -0.295653        -2.045667
 H         2.565587        -1.839383        -1.133929
 H         4.846914        -1.355312         2.357359
 H         4.919684         0.400947         2.574256
 H         1.981140        -1.801183         1.217600
