19
Iteration:  3608charge 0 multiplicity 1
 C        -0.143849        -0.006506        -0.002359
 C         1.383896        -0.113078         0.075905
 C         2.405244         1.122847         0.129026
 C         3.182652        -0.169293         0.131786
 C         2.391412        -0.711272        -1.031974
 O         4.571437        -0.163630         0.697044
 C         4.255918        -0.087620         2.058069
 O         2.795327        -0.371037         2.421224
 C         2.335825        -0.759910         1.174745
 H        -0.681366         0.908724         0.414163
 H        -0.489203         0.106633        -1.100503
 H        -0.715263        -0.926580         0.272181
 H         2.388282         1.679598        -0.834649
 H         2.369051         1.662849         1.077959
 H         2.482591        -0.140610        -2.010056
 H         2.328332        -1.760981        -1.182587
 H         4.889089        -0.746574         2.618180
 H         4.440654         0.897437         2.394622
 H         2.302443        -1.776740         1.254983
