19
Iteration:  1904
 C        -0.177767         0.128705         0.079437
 C         1.411178        -0.093724         0.103083
 C         2.376606         1.136674         0.089349
 C         3.198255        -0.205031         0.132894
 C         2.465195        -0.725767        -0.982282
 O         4.517017        -0.278635         0.673125
 C         4.233181        -0.052528         2.024707
 O         2.891610        -0.336485         2.334564
 C         2.253140        -0.839784         1.192322
 H        -0.371798         0.876581         0.924620
 H        -0.612169         0.388638        -0.878998
 H        -0.712760        -0.775146         0.380217
 H         2.443165         1.647431        -0.929951
 H         2.343742         1.923709         0.989773
 H         2.450961        -0.214446        -1.975092
 H         2.369133        -1.809482        -1.060275
 H         4.879801        -0.751903         2.503886
 H         4.351321         0.977220         2.364137
 H         2.120102        -1.956161         1.098284
