19
Iteration:   287
 C        -0.163084        -0.110633         0.054136
 C         1.391478         0.066278         0.044298
 C         2.351270         1.176270        -0.043813
 C         3.213736        -0.082033         0.148659
 C         2.344102        -0.717230        -0.964927
 O         4.555375        -0.088950         0.722587
 C         4.258518        -0.532438         2.101527
 O         2.896627        -0.140504         2.389849
 C         2.303248        -0.697370         1.168415
 H        -0.611513         0.511933         0.789212
 H        -0.859585        -0.444903        -0.750676
 H        -0.039618        -1.133284         0.536061
 H         2.422890         1.757021        -1.058647
 H         2.154364         1.909782         0.826317
 H         2.332995        -0.312923        -2.060391
 H         2.114737        -1.856188        -1.000655
 H         4.493876        -1.578123         2.154607
 H         4.880943         0.117030         2.760252
 H         2.405053        -1.857909         1.121386
