19
Iteration:  3997charge 0 multiplicity 1
 C        -0.121761         0.003503        -0.017671
 C         1.331648        -0.170398         0.002935
 C         2.270010         1.188793         0.031929
 C         3.272364        -0.050077         0.151024
 C         2.355519        -0.815417        -0.938191
 O         4.563641        -0.060000         0.686498
 C         4.279010        -0.317839         2.201480
 O         2.903275        -0.259118         2.368425
 C         2.320453        -0.745892         1.157897
 H        -0.587195         0.641053         0.631084
 H        -0.400062         0.386762        -1.062202
 H        -0.659531        -0.971930         0.066422
 H         2.404862         1.795608        -0.881169
 H         2.110317         1.840573         0.916208
 H         2.238996        -0.292804        -1.927396
 H         2.453891        -2.013932        -0.936960
 H         4.460196        -1.356002         2.476420
 H         4.724107         0.471172         2.893034
 H         2.216824        -1.843616         1.088447
