19
Iteration:  4578
 C        -0.178607        -0.007708         0.015963
 C         1.307230        -0.053762         0.028488
 C         2.339603         1.094406        -0.035093
 C         3.227847        -0.097040         0.156400
 C         2.492398        -0.789560        -1.026261
 O         4.534346        -0.049307         0.720262
 C         4.237831        -0.387334         2.170728
 O         2.897522        -0.195516         2.402566
 C         2.292492        -0.744194         1.214369
 H        -0.580285         0.265183         0.979121
 H        -0.531233         0.790920        -0.625747
 H        -0.619249        -1.042930        -0.081375
 H         2.219816         1.495809        -1.115761
 H         2.290966         1.949883         0.776387
 H         2.526811        -0.316314        -2.149669
 H         2.272176        -1.902073        -1.090348
 H         4.559642        -1.439706         2.331095
 H         4.869999         0.388652         2.734182
 H         2.372427        -1.784008         1.200415
