19
Iteration:  3955
 C        -0.121513        -0.070974        -0.091389
 C         1.364074        -0.034497         0.091732
 C         2.409655         1.096331         0.168660
 C         3.261047        -0.137816         0.223010
 C         2.298970        -0.703890        -1.040709
 O         4.533364        -0.219063         0.610469
 C         4.275903        -0.087342         2.110745
 O         2.868392        -0.272388         2.440921
 C         2.249377        -0.823167         1.101213
 H        -0.595937         0.648885         0.607773
 H        -0.367878         0.091208        -1.222181
 H        -0.595524        -1.117225         0.245331
 H         2.603217         1.751899        -0.654694
 H         2.223776         1.777043         0.994516
 H         2.353460         0.067818        -1.855585
 H         2.500186        -1.837390        -1.038841
 H         4.898147        -0.808331         2.636264
 H         4.516398         0.913584         2.567595
 H         2.100148        -1.834520         1.351303
