19
Iteration:  3787charge 0 multiplicity 1
 C        -0.088059        -0.199938        -0.034588
 C         1.386932         0.002405         0.102178
 C         2.341858         1.213616         0.092785
 C         3.289625        -0.127795         0.148968
 C         2.330170        -0.713514        -0.946850
 O         4.525498        -0.263491         0.684542
 C         4.209012        -0.238955         2.180803
 O         2.845617        -0.200069         2.339070
 C         2.336620        -0.706954         1.128078
 H        -0.694111         0.669269         0.466182
 H        -0.225895        -0.051781        -1.223686
 H        -0.435764        -1.176758         0.329332
 H         2.379030         1.968695        -0.707421
 H         2.427110         1.824391         0.993461
 H         2.155182         0.037428        -1.717391
 H         2.115942        -1.825770        -1.200267
 H         4.769525        -1.108426         2.449864
 H         4.599723         0.746711         2.406706
 H         2.213640        -1.756956         0.987360
