19
Iteration:  4806charge 0 multiplicity 1
 C        -0.107562        -0.103587        -0.032530
 C         1.357404         0.019812         0.117982
 C         2.446088         1.198222         0.148690
 C         3.230659        -0.133773         0.159677
 C         2.332438        -0.726848        -0.966440
 O         4.592712        -0.290455         0.613688
 C         4.206756        -0.088780         2.154690
 O         2.834025        -0.271597         2.366276
 C         2.244737        -0.772020         1.115513
 H        -0.655560        -0.024945         0.934836
 H        -0.610446         0.510153        -0.913920
 H        -0.316829        -1.213492        -0.332839
 H         2.621746         1.743450        -0.741009
 H         2.429673         1.784876         1.122892
 H         2.411014        -0.294944        -1.997926
 H         2.193256        -1.815933        -0.917964
 H         4.897965        -0.820141         2.769460
 H         4.527708         0.987341         2.275430
 H         2.062587        -1.922347         0.965696
