19
Iteration:  1737
 C        -0.277295        -0.092600         0.132701
 C         1.283915         0.022511         0.072291
 C         2.449348         1.149938         0.038119
 C         3.312068        -0.079128         0.093723
 C         2.422914        -0.737050        -0.975666
 O         4.578539        -0.247714         0.598249
 C         4.244891        -0.374618         2.214615
 O         2.827452        -0.132020         2.398750
 C         2.294660        -0.702283         1.074925
 H        -0.613569         0.618092         0.865006
 H        -0.784948         0.157984        -0.855650
 H        -0.642793        -1.174183         0.299383
 H         2.516284         1.795852        -0.919075
 H         2.422129         1.953350         0.832245
 H         2.510338        -0.264087        -1.982048
 H         2.448432        -1.880823        -1.123722
 H         4.632298        -1.350749         2.448700
 H         4.870813         0.432701         2.616816
 H         2.293348        -1.790328         1.271164
