19
Iteration:  3407
 C        -0.088308        -0.083624         0.082750
 C         1.355858        -0.054954         0.047200
 C         2.314183         1.111162         0.052227
 C         3.240297        -0.098697         0.145761
 C         2.418701        -0.674042        -0.995205
 O         4.575095        -0.112953         0.658351
 C         4.218785        -0.345842         2.171566
 O         2.835047        -0.168981         2.352769
 C         2.234127        -0.760406         1.140981
 H        -0.520995         0.721763         0.614185
 H        -0.495645        -0.003121        -0.927649
 H        -0.464165        -1.157794         0.407375
 H         2.412143         1.460880        -1.000050
 H         2.362069         1.836485         0.863008
 H         2.500121        -0.186477        -1.993995
 H         2.421156        -1.808543        -1.016989
 H         4.683008        -1.364006         2.329823
 H         4.765292         0.359604         2.715526
 H         2.362659        -1.803137         1.302125
