19
Iteration:  2457
 C        -0.081496        -0.061304         0.051195
 C         1.391351        -0.080327         0.023620
 C         2.424818         1.176671         0.089705
 C         3.277522        -0.177073         0.151386
 C         2.241513        -0.781422        -1.000216
 O         4.569893        -0.147680         0.639450
 C         4.257348        -0.195246         2.162118
 O         2.794416        -0.241466         2.412659
 C         2.248890        -0.756497         1.096836
 H        -0.313562         0.440313         0.972047
 H        -0.558026         0.598364        -0.706266
 H        -0.676927        -1.063869        -0.066219
 H         2.424842         1.852988        -0.748900
 H         2.563202         1.821726         0.975066
 H         2.312480        -0.329028        -1.938757
 H         2.312703        -1.852136        -1.054187
 H         4.889483        -1.030018         2.454663
 H         4.749548         0.770729         2.346511
 H         2.259365        -1.823456         1.250483
