19
Iteration:  4183
 C        -0.184538         0.010405         0.009770
 C         1.441717         0.005717         0.011410
 C         2.397199         1.180840         0.180635
 C         3.250023        -0.257643         0.135260
 C         2.382156        -0.789065        -1.006426
 O         4.545154        -0.263444         0.720777
 C         4.162337         0.097251         2.093227
 O         2.847464        -0.417258         2.322479
 C         2.293560        -0.828333         1.119082
 H        -0.431292         0.459914         0.935899
 H        -0.588874         0.670759        -0.834411
 H        -0.473527        -1.086486         0.096718
 H         2.512784         1.801903        -0.762974
 H         2.574877         1.780518         1.133494
 H         2.600723        -0.250414        -1.837951
 H         2.278800        -1.862587        -0.837161
 H         5.033059        -0.314461         2.687095
 H         4.170936         1.270404         2.189810
 H         2.044693        -1.963685         1.232031
