19
Iteration:  2299charge 0 multiplicity 1
 C        -0.083941        -0.057044         0.058826
 C         1.380170         0.002655         0.125167
 C         2.347201         1.128622         0.124386
 C         3.255991        -0.196420         0.085286
 C         2.274721        -0.726993        -1.007989
 O         4.587444        -0.295819         0.672450
 C         4.241972        -0.159157         2.091135
 O         2.831353        -0.178009         2.297922
 C         2.316490        -0.760441         1.198087
 H        -0.703848         0.399272         0.962616
 H        -0.369475         0.570714        -0.858600
 H        -0.406873        -1.072049        -0.212633
 H         2.330346         1.645835        -0.802709
 H         2.394224         1.721401         0.992017
 H         2.462104        -0.030597        -1.859034
 H         2.260997        -1.758004        -1.366325
 H         4.724671        -0.956260         2.784346
 H         4.509154         0.805088         2.465891
 H         2.222669        -1.863707         1.481658
