19
Iteration:  3265charge 0 multiplicity 1
 C        -0.132050        -0.046910         0.029479
 C         1.362752         0.002370         0.000765
 C         2.300742         1.129247         0.144427
 C         3.281006        -0.180367         0.101642
 C         2.380911        -0.711385        -0.988831
 O         4.547380        -0.282425         0.721989
 C         4.243418        -0.012002         2.104097
 O         2.813187        -0.353257         2.389143
 C         2.336383        -0.757706         1.123178
 H        -0.442290         0.625532         0.709789
 H        -0.685095         0.202387        -0.806774
 H        -0.435472        -1.060274         0.347858
 H         2.687821         1.698091        -0.753502
 H         2.183291         1.806098         1.008712
 H         2.603165        -0.175711        -1.958505
 H         2.381799        -1.780839        -1.189139
 H         4.908449        -0.737459         2.626349
 H         4.483524         0.994124         2.325720
 H         2.179812        -1.829290         0.950661
