19
Iteration:  1718charge 0 multiplicity 1
 C        -0.056528        -0.084016         0.107071
 C         1.405890        -0.012120         0.030778
 C         2.253616         1.247197        -0.064715
 C         3.229905        -0.101198         0.165083
 C         2.397965        -0.720492        -0.945515
 O         4.536748        -0.279932         0.660508
 C         4.253405        -0.418574         2.098962
 O         2.850465        -0.160101         2.384153
 C         2.303168        -0.628204         1.191389
 H        -0.401175         0.456817         1.002983
 H        -0.564843         0.147777        -0.823190
 H        -0.393322        -1.123949         0.278567
 H         2.293772         1.827144        -0.995201
 H         2.237511         2.011766         0.801665
 H         2.367775        -0.377941        -1.976557
 H         2.298651        -1.798437        -1.009603
 H         4.449452        -1.499468         2.301301
 H         4.838192         0.328121         2.762938
 H         2.146127        -1.658733         1.159540
