19
Iteration:  1949charge 0 multiplicity 1
 C        -0.096484         0.059537         0.069960
 C         1.359355        -0.045264         0.092113
 C         2.454032         1.107144        -0.001328
 C         3.257222        -0.211404         0.139781
 C         2.216628        -0.775864        -0.995760
 O         4.479821        -0.119289         0.705138
 C         4.314107        -0.196142         2.112326
 O         2.834011        -0.259683         2.362236
 C         2.347999        -0.820837         1.158973
 H        -0.420317         0.521052         1.067554
 H        -0.349818         0.618356        -0.837853
 H        -0.461984        -0.942121        -0.065431
 H         2.505364         1.778873        -0.965600
 H         2.333829         1.831791         0.891994
 H         2.134043        -0.268711        -1.974356
 H         2.272326        -1.864013        -1.183010
 H         4.644822        -1.090090         2.447967
 H         4.767950         0.672571         2.563850
 H         2.230988        -1.942641         1.280094
