19
Iteration:  1604
 C        -0.125582        -0.032972         0.105772
 C         1.378049        -0.017664         0.103330
 C         2.537803         1.177958         0.120416
 C         3.245783        -0.252208         0.155999
 C         2.293681        -0.710275        -1.042101
 O         4.472990        -0.314285         0.693481
 C         4.262081        -0.009136         2.063560
 O         2.833116        -0.307913         2.356524
 C         2.282433        -0.784290         1.082253
 H        -0.538137         0.493089         0.978032
 H        -0.417971         0.385880        -0.879394
 H        -0.547642        -1.057181         0.241081
 H         2.662631         1.834616        -0.833575
 H         2.431088         1.737095         1.049783
 H         2.386511        -0.145967        -2.012194
 H         2.135977        -1.778394        -1.319220
 H         4.965285        -0.621699         2.644210
 H         4.361586         1.035197         2.208886
 H         2.085612        -1.736354         1.266435
