19
Iteration:  4808
 C        -0.098754        -0.108882        -0.035331
 C         1.349769         0.025377         0.115032
 C         2.434494         1.209006         0.152517
 C         3.220227        -0.123318         0.172818
 C         2.340095        -0.734753        -0.967055
 O         4.585515        -0.291739         0.618466
 C         4.215576        -0.101613         2.159528
 O         2.836943        -0.271579         2.359097
 C         2.241299        -0.771450         1.108118
 H        -0.699027         0.002069         0.954308
 H        -0.517576         0.515068        -0.853084
 H        -0.320209        -1.212222        -0.277767
 H         2.641121         1.712238        -0.763041
 H         2.476749         1.740619         1.103803
 H         2.396110        -0.384111        -2.045939
 H         2.249571        -1.774274        -0.972183
 H         4.838574        -0.788680         2.698095
 H         4.554691         1.013877         2.271291
 H         2.102158        -1.886450         0.991438
