19
Iteration:  1552
 C        -0.140425         0.138171         0.095303
 C         1.329917        -0.065064         0.130086
 C         2.387706         1.068154         0.095030
 C         3.197748        -0.183724         0.133132
 C         2.392693        -0.714571        -1.051268
 O         4.510434        -0.353497         0.694429
 C         4.268676         0.068339         2.079518
 O         2.868533        -0.363668         2.328120
 C         2.313125        -0.845298         1.116111
 H        -0.247556         0.563286         1.035140
 H        -0.536760         0.760490        -0.703571
 H        -0.708296        -0.838047         0.058384
 H         2.405508         1.719515        -0.829489
 H         2.368821         1.677594         0.971390
 H         2.463119        -0.239996        -2.019911
 H         2.391493        -1.824957        -1.158399
 H         5.009012        -0.477897         2.749268
 H         4.412354         1.197370         2.333682
 H         2.297948        -2.010802         1.239904
