19
Iteration:  4305charge 0 multiplicity 1
 C        -0.215549        -0.105718        -0.083150
 C         1.324853        -0.054366        -0.004174
 C         2.328808         1.121673         0.000758
 C         3.246698        -0.069566         0.191211
 C         2.363500        -0.759488        -0.870064
 O         4.519989        -0.003113         0.706115
 C         4.279109        -0.461576         2.115913
 O         2.933198        -0.165599         2.409256
 C         2.314779        -0.703508         1.163164
 H        -0.574700         0.835586         0.336286
 H        -0.292669        -0.031657        -1.225476
 H        -0.544366        -1.058900         0.443331
 H         2.586290         1.682930        -0.943902
 H         2.273701         1.829633         0.825636
 H         2.495135        -0.348989        -1.885724
 H         2.226507        -1.827839        -0.744236
 H         4.520066        -1.540969         2.168718
 H         4.900033         0.039812         2.893261
 H         2.365412        -1.818017         1.339068
