19
Iteration:  2296charge 0 multiplicity 1
 C        -0.057084        -0.061588         0.041536
 C         1.392007        -0.002775         0.139698
 C         2.335551         1.106853         0.145272
 C         3.256306        -0.187533         0.090485
 C         2.263402        -0.726212        -1.003557
 O         4.578232        -0.299533         0.690996
 C         4.252556        -0.148914         2.077496
 O         2.841148        -0.169680         2.297937
 C         2.290774        -0.762411         1.162508
 H        -0.565561         0.386828         0.928431
 H        -0.385976         0.543585        -0.781587
 H        -0.389440        -1.067813        -0.141649
 H         2.345406         1.649368        -0.798141
 H         2.471699         1.785190         0.982174
 H         2.435895        -0.026373        -1.804782
 H         2.194739        -1.777448        -1.429666
 H         4.581975        -0.928981         2.709348
 H         4.517834         0.816707         2.444758
 H         2.197356        -1.828173         1.439437
