19
Iteration:  3899
 C        -0.061194        -0.023400         0.072832
 C         1.394128        -0.049216         0.035346
 C         2.417289         1.123036         0.099076
 C         3.233197        -0.171533         0.151751
 C         2.412620        -0.707833        -1.012693
 O         4.534520        -0.286684         0.717874
 C         4.261207         0.125177         1.995159
 O         2.741672        -0.418562         2.387740
 C         2.290071        -0.836352         1.165956
 H        -0.339857         0.273229         1.064963
 H        -0.523016         0.896821        -0.499255
 H        -0.647185        -0.980151        -0.190475
 H         2.448957         1.715469        -0.801334
 H         2.457216         1.708486         1.024603
 H         2.563412        -0.139248        -1.947089
 H         2.290393        -1.842777        -1.281102
 H         4.738353        -0.463382         2.678005
 H         4.051105         1.126840         2.217327
 H         2.089689        -1.884924         1.170467
