19
Iteration:  4717
 C        -0.088084         0.030710         0.012831
 C         1.387456        -0.043671         0.065309
 C         2.392093         1.079441         0.078091
 C         3.226113        -0.235214         0.122656
 C         2.306373        -0.707107        -0.975957
 O         4.508023        -0.152280         0.756382
 C         4.165997         0.020995         2.115949
 O         2.894695        -0.408060         2.344912
 C         2.350053        -0.846669         1.075520
 H        -0.360407         0.741339         0.769867
 H        -0.409891         0.568030        -1.000753
 H        -0.589237        -0.887797         0.363394
 H         2.633306         1.514060        -0.808049
 H         2.555489         1.605393         0.999890
 H         2.363766        -0.189558        -1.881182
 H         2.136625        -1.768233        -1.219482
 H         4.845187        -0.639549         2.810874
 H         4.197389         1.087179         2.428610
 H         2.218850        -1.997444         1.196742
