19
Iteration:  2468
 C        -0.092197         0.035819         0.063499
 C         1.390780        -0.094523         0.091790
 C         2.440928         1.138491         0.091807
 C         3.208310        -0.132811         0.104260
 C         2.362622        -0.788538        -1.068742
 O         4.481170        -0.134516         0.634530
 C         4.241519        -0.171981         2.110930
 O         2.874266        -0.222053         2.396418
 C         2.262219        -0.857852         1.196766
 H        -0.545091         0.343522         1.002513
 H        -0.300749         0.701518        -0.792751
 H        -0.468176        -1.049577        -0.151863
 H         2.361942         1.690058        -0.821578
 H         2.353349         1.670419         1.041384
 H         2.512535        -0.458952        -2.047005
 H         2.158449        -1.845419        -1.022578
 H         4.630848        -1.043253         2.631323
 H         4.589885         0.745572         2.646664
 H         2.164684        -1.930697         1.147555
