19
Iteration:  3139
 C        -0.178213        -0.074184        -0.048223
 C         1.320158        -0.050163         0.035620
 C         2.382107         1.148129         0.125131
 C         3.207040        -0.198061         0.172579
 C         2.322296        -0.728790        -1.077546
 O         4.558817        -0.188126         0.685885
 C         4.296850        -0.119758         2.204122
 O         2.861992        -0.246997         2.376591
 C         2.364280        -0.787533         1.161021
 H        -0.501613         0.197950         1.020424
 H        -0.572311         0.596570        -0.880681
 H        -0.585693        -1.030851        -0.268220
 H         2.483765         1.781424        -0.684393
 H         2.565123         1.912248         0.834040
 H         2.412151        -0.155778        -1.932632
 H         2.161702        -1.856903        -1.118963
 H         4.753567        -0.998857         2.538541
 H         4.657985         0.764812         2.710452
 H         2.232915        -1.867806         1.124428
