19
Iteration:  4924charge 0 multiplicity 1
 C        -0.135790        -0.129050        -0.015235
 C         1.344567        -0.072849         0.095244
 C         2.296773         1.207783        -0.023796
 C         3.263281        -0.054911         0.168004
 C         2.380069        -0.674956        -1.046934
 O         4.510036        -0.204799         0.750025
 C         4.308548        -0.408715         2.175570
 O         2.913975        -0.136338         2.369488
 C         2.291015        -0.688908         1.167030
 H        -0.562266         0.224499         0.902453
 H        -0.443123         0.415706        -0.958199
 H        -0.599589        -1.082639        -0.018629
 H         2.444401         1.659392        -1.025196
 H         1.969013         1.914028         0.886609
 H         2.412169        -0.312348        -2.115377
 H         2.463815        -1.931834        -0.992740
 H         4.501150        -1.469309         2.421637
 H         4.918142         0.311286         2.687720
 H         2.048554        -1.743840         1.278753
