19
Iteration:   817charge 0 multiplicity 1
 C        -0.125516         0.094818         0.002566
 C         1.375132        -0.093122         0.166467
 C         2.254936         1.136845         0.176060
 C         3.260437        -0.155922         0.109976
 C         2.376242        -0.813494        -0.915307
 O         4.577246        -0.012419         0.603282
 C         4.321922        -0.265874         2.029048
 O         2.848206        -0.289931         2.326482
 C         2.283126        -0.863176         1.135037
 H        -0.599844         0.812422         0.809904
 H        -0.375420         0.682996        -0.906416
 H        -0.710804        -0.871664        -0.011157
 H         2.147910         1.940386        -0.622630
 H         2.385012         1.505117         1.172212
 H         2.248936        -0.528724        -1.966783
 H         2.190175        -1.885848        -0.787077
 H         4.689316        -1.215227         2.473053
 H         4.947133         0.498356         2.596824
 H         2.232991        -1.920348         1.128936
