19
Iteration:  3297charge 0 multiplicity 1
 C        -0.101335         0.031751        -0.040192
 C         1.347531        -0.088686         0.149021
 C         2.345394         1.092196         0.145197
 C         3.278205        -0.141140         0.082510
 C         2.338715        -0.786450        -0.986324
 O         4.555552        -0.124556         0.717150
 C         4.300387        -0.109708         2.057707
 O         2.771024        -0.286058         2.377120
 C         2.327935        -0.809315         1.133118
 H        -0.594633         0.401933         0.813228
 H        -0.285286         0.583043        -0.924186
 H        -0.575750        -0.998416        -0.130840
 H         2.538416         1.582541        -0.887745
 H         2.241370         1.698245         1.080278
 H         2.236082        -0.197312        -1.992297
 H         2.483644        -1.868924        -1.157865
 H         4.773296        -0.997075         2.578528
 H         4.569048         0.738536         2.595510
 H         2.259683        -1.976988         1.241064
