19
Iteration:  1477charge 0 multiplicity 1
 C        -0.141916        -0.057829        -0.005126
 C         1.353122        -0.066720         0.049469
 C         2.346848         1.206122         0.099545
 C         3.248318        -0.073497         0.124670
 C         2.336042        -0.691914        -0.986999
 O         4.529425        -0.295476         0.591230
 C         4.364783        -0.358318         2.110367
 O         2.844558        -0.152182         2.436201
 C         2.249582        -0.702168         1.207849
 H        -0.506741         0.493970         0.852630
 H        -0.639926         0.275503        -0.957988
 H        -0.285186        -1.204232        -0.024075
 H         2.244616         1.719138        -0.825519
 H         2.336699         1.865259         0.889842
 H         2.199449        -0.104480        -1.854408
 H         2.520572        -1.779522        -1.006404
 H         4.882967        -1.193824         2.562902
 H         4.866959         0.516838         2.537853
 H         2.227849        -1.833767         1.401853
