19
Iteration:  2450charge 0 multiplicity 1
 C        -0.129050        -0.083745         0.040577
 C         1.388285        -0.027230         0.019142
 C         2.379612         1.153521         0.082724
 C         3.266208        -0.175125         0.126334
 C         2.258342        -0.770794        -0.953864
 O         4.612061        -0.192988         0.667154
 C         4.275968        -0.185722         2.134104
 O         2.770951        -0.252483         2.390097
 C         2.341521        -0.691724         1.076566
 H        -0.409922         0.359777         1.028092
 H        -0.612875         0.489027        -0.703601
 H        -0.586381        -0.999972         0.110502
 H         2.622410         1.708011        -0.909947
 H         2.459078         1.710909         1.026937
 H         2.124881        -0.153701        -1.894952
 H         2.244468        -1.888319        -1.049834
 H         4.827001        -1.077595         2.471319
 H         4.573303         0.780027         2.686489
 H         2.174741        -1.773106         1.222410
