19
Iteration:   883charge 0 multiplicity 1
 C        -0.104309        -0.160508         0.096791
 C         1.383630         0.077937         0.098717
 C         2.540999         1.199970         0.195562
 C         3.223686        -0.112154         0.098481
 C         2.341255        -0.646967        -0.959412
 O         4.465255        -0.438153         0.618735
 C         4.178790         0.022079         1.990121
 O         2.882494        -0.347218         2.392371
 C         2.266706        -0.756751         1.063628
 H        -0.554265         0.066953         1.139253
 H        -0.616937         0.528367        -0.551465
 H        -0.340866        -1.250270        -0.049946
 H         2.499286         2.006123        -0.577374
 H         2.305197         1.494561         1.171726
 H         2.372902        -0.131445        -1.968529
 H         2.153142        -1.712950        -0.994073
 H         4.912287        -0.501703         2.615413
 H         4.393097         1.114046         2.247399
 H         2.258329        -1.882426         0.992720
