19
Iteration:  1073charge 0 multiplicity 1
 C        -0.095104         0.056118         0.157094
 C         1.370548        -0.094467         0.069693
 C         2.359823         1.128896        -0.011198
 C         3.191859        -0.122414         0.078800
 C         2.233097        -0.750861        -1.048101
 O         4.507400         0.033711         0.730373
 C         4.264297        -0.367820         2.132946
 O         2.909980        -0.337377         2.393322
 C         2.378040        -0.778894         1.127414
 H        -0.460859         0.625374         0.979061
 H        -0.477288         0.614345        -0.715687
 H        -0.521388        -1.010235         0.187811
 H         2.403851         1.706827        -0.922924
 H         2.534093         1.819068         0.872041
 H         2.288272        -0.376644        -1.987844
 H         2.209168        -1.782768        -1.030417
 H         4.775405        -1.359327         2.072688
 H         4.706320         0.318671         2.850742
 H         2.346901        -1.880167         0.852895
