19
Iteration:  2582
 C        -0.121728        -0.044980         0.032231
 C         1.369959        -0.057680         0.027076
 C         2.291655         1.155449         0.143200
 C         3.192839        -0.139310         0.133100
 C         2.345103        -0.710261        -1.027778
 O         4.594928        -0.270817         0.763785
 C         4.282257        -0.192752         2.148224
 O         2.855726        -0.235825         2.291387
 C         2.320963        -0.752703         1.127723
 H        -0.324547         0.728739         0.823831
 H        -0.572878         0.336252        -0.880209
 H        -0.386421        -1.050301         0.333421
 H         2.382618         1.704481        -0.898164
 H         2.000548         1.778886         1.057639
 H         2.211207        -0.193221        -2.035441
 H         2.519847        -1.785290        -1.231946
 H         4.847986        -0.959413         2.753715
 H         4.796101         0.889311         2.291618
 H         2.058221        -1.783141         1.112528
