19
Iteration:  2193
 C        -0.117941         0.126687        -0.004164
 C         1.326239        -0.036533         0.183243
 C         2.422846         1.113020         0.213950
 C         3.148953        -0.274085         0.178169
 C         2.373694        -0.834934        -1.014515
 O         4.564656        -0.209119         0.674086
 C         4.222021         0.002254         2.019472
 O         2.899053        -0.324287         2.252394
 C         2.272277        -0.859365         1.153503
 H        -0.557924         0.647421         0.759094
 H        -0.247827         0.713135        -0.924531
 H        -0.594735        -0.850852         0.092492
 H         2.535151         1.750508        -0.775778
 H         2.418754         1.768107         1.153526
 H         2.263673        -0.262511        -1.973932
 H         2.251490        -1.909336        -1.033892
 H         4.888986        -0.582296         2.647487
 H         4.443977         1.024408         2.500576
 H         2.316640        -1.960573         1.186413
