19
Iteration:  2451charge 0 multiplicity 1
 C        -0.119195        -0.084888         0.040236
 C         1.392036        -0.034827         0.015893
 C         2.383913         1.158865         0.086065
 C         3.266081        -0.179263         0.133098
 C         2.251276        -0.774624        -0.954343
 O         4.609443        -0.186156         0.662795
 C         4.273714        -0.186776         2.140093
 O         2.770605        -0.251870         2.394885
 C         2.329209        -0.694648         1.071217
 H        -0.390915         0.375549         1.033920
 H        -0.626426         0.513818        -0.712646
 H        -0.620007        -0.997010         0.087560
 H         2.604295         1.729055        -0.891542
 H         2.489219         1.725099         1.017027
 H         2.132150        -0.143311        -1.916625
 H         2.269341        -1.893250        -1.048951
 H         4.860057        -1.079361         2.449480
 H         4.599372         0.781213         2.630910
 H         2.192552        -1.792117         1.251942
