19
Iteration:  4378
 C        -0.133523        -0.066233         0.066071
 C         1.410109        -0.053569         0.037457
 C         2.406997         1.074434         0.096696
 C         3.247006        -0.213570         0.125730
 C         2.274795        -0.711501        -1.072129
 O         4.562747        -0.227624         0.727242
 C         4.269849        -0.049191         2.151775
 O         2.795858        -0.289958         2.388787
 C         2.302745        -0.717225         1.079872
 H        -0.504576         0.264316         0.969428
 H        -0.345762         0.627461        -0.782340
 H        -0.375263        -1.068146        -0.160374
 H         2.566597         1.767331        -0.778061
 H         2.381370         1.781626         0.961243
 H         2.533770        -0.249117        -1.996912
 H         2.221642        -1.872137        -1.241266
 H         4.717813        -0.743766         2.905077
 H         4.484367         1.028090         2.480832
 H         2.158808        -1.759837         1.174776
