19
Iteration:  2428charge 0 multiplicity 1
 C        -0.156358        -0.099193         0.102462
 C         1.372346        -0.001220         0.136886
 C         2.363192         1.246575         0.031102
 C         3.242331        -0.138482         0.144208
 C         2.377860        -0.726580        -1.042348
 O         4.519325        -0.280453         0.724317
 C         4.255890        -0.226823         2.162602
 O         2.869757        -0.191728         2.317045
 C         2.273579        -0.784101         1.065827
 H        -0.733049         0.427246         0.905273
 H        -0.515355         0.231401        -0.829393
 H        -0.499070        -1.066076         0.258727
 H         2.169213         1.697304        -1.041956
 H         2.576864         1.921963         0.872579
 H         2.570096        -0.282882        -2.072001
 H         2.454975        -1.849317        -1.003467
 H         4.851979        -1.033704         2.590830
 H         4.717595         0.772579         2.424830
 H         2.347305        -1.847120         1.238645
