19
Iteration:  1764
 C        -0.007813         0.007724         0.034470
 C         1.380328        -0.003661         0.083718
 C         2.398439         1.078868         0.140612
 C         3.266256        -0.175936         0.072192
 C         2.233458        -0.752480        -0.982341
 O         4.543993        -0.162433         0.679252
 C         4.224877        -0.259279         2.112139
 O         2.831422        -0.167910         2.320502
 C         2.285754        -0.811319         1.164401
 H        -0.258872         0.626207         0.974859
 H        -0.445428         0.292344        -0.901822
 H        -0.432845        -0.908391         0.331964
 H         2.259736         1.636553        -0.754428
 H         2.345703         1.786478         0.945880
 H         2.367155        -0.264567        -1.956058
 H         2.181040        -1.770233        -1.224955
 H         4.674528        -1.263192         2.438816
 H         4.702140         0.683668         2.531224
 H         2.139194        -1.879441         1.327700
