19
Iteration:   979
 C        -0.261133        -0.036976         0.012085
 C         1.296632        -0.030699         0.170722
 C         2.402538         1.179216         0.085057
 C         3.234159        -0.105257         0.144097
 C         2.276083        -0.691946        -0.991778
 O         4.551715        -0.164287         0.634685
 C         4.326694        -0.236156         2.065571
 O         2.940274        -0.315373         2.395648
 C         2.323492        -0.809811         1.154929
 H        -0.846371         0.598741         0.742223
 H        -0.438924         0.511222        -0.940337
 H        -0.589487        -1.021470         0.021486
 H         2.552143         1.800577        -0.823728
 H         2.449832         1.841994         0.964154
 H         2.308946        -0.218060        -2.065401
 H         2.407488        -1.878423        -1.123644
 H         4.890864        -1.143405         2.346479
 H         4.667243         0.603339         2.714470
 H         2.458865        -1.982917         1.207458
