19
Iteration:  4961
 C        -0.149116        -0.129162        -0.056435
 C         1.424393        -0.038598         0.129080
 C         2.436338         1.155298         0.192481
 C         3.247797        -0.108373         0.124302
 C         2.369506        -0.773395        -0.964793
 O         4.563851        -0.175048         0.637366
 C         4.215572        -0.301362         2.083425
 O         2.819422        -0.090549         2.342840
 C         2.225059        -0.784772         1.167266
 H        -0.631197         0.272415         0.785867
 H        -0.489469         0.654776        -0.689037
 H        -0.390233        -1.125237        -0.524763
 H         2.545015         1.907878        -0.589115
 H         2.431370         1.690624         1.077764
 H         2.300928        -0.359013        -2.063088
 H         2.238889        -1.893036        -0.935381
 H         4.731030        -1.179076         2.527005
 H         4.699854         0.597242         2.538456
 H         2.111453        -1.888937         1.298338
