19
Iteration:  4874
 C        -0.075363         0.024717         0.001816
 C         1.364560        -0.061613         0.086857
 C         2.362335         1.097061         0.112526
 C         3.243047        -0.100133         0.145555
 C         2.365963        -0.863522        -1.005916
 O         4.531397        -0.004326         0.741271
 C         4.251376        -0.335007         2.071835
 O         2.818560        -0.210500         2.330697
 C         2.276228        -0.791315         1.115478
 H        -0.503712         0.969492         0.675042
 H        -0.440035        -0.030368        -1.047420
 H        -0.576457        -0.956728         0.448773
 H         2.329788         1.743091        -0.791622
 H         2.571807         1.627945         0.983843
 H         2.259457        -0.221780        -1.939333
 H         2.398778        -1.873116        -1.014432
 H         4.617575        -1.373127         2.466986
 H         4.721198         0.565759         2.798157
 H         2.476485        -1.990196         1.143225
