19
Iteration:   628
 C        -0.124117         0.087265         0.119681
 C         1.384790        -0.073417         0.092412
 C         2.336620         1.100432         0.155674
 C         3.255203        -0.253897         0.046052
 C         2.281791        -0.672696        -1.100246
 O         4.612630        -0.355143         0.716175
 C         4.177824         0.169542         2.076037
 O         2.923525        -0.426047         2.390230
 C         2.288528        -0.891217         1.127103
 H        -0.481629         0.859080         0.902270
 H        -0.267724         0.635001        -0.955024
 H        -0.589316        -0.898858         0.230517
 H         2.516785         1.756058        -0.669202
 H         2.299612         1.627707         1.138786
 H         2.171870         0.004025        -1.892460
 H         2.053709        -1.741695        -1.325614
 H         5.017161        -0.052713         2.878843
 H         4.200547         1.277212         1.929329
 H         2.212617        -1.923042         1.075456
