19
Iteration:  1345
 C        -0.181724         0.001237        -0.026385
 C         1.309502        -0.054653         0.147000
 C         2.331503         1.126900         0.156607
 C         3.303216        -0.204750         0.140989
 C         2.286628        -0.688891        -0.983558
 O         4.606758        -0.222140         0.576383
 C         4.303790        -0.215599         2.169685
 O         2.894834        -0.226650         2.362120
 C         2.306337        -0.750467         1.161778
 H        -0.750297         0.268297         0.847356
 H        -0.385977         0.687164        -0.918825
 H        -0.582071        -1.094944        -0.287892
 H         2.283722         1.783881        -0.698914
 H         2.501933         1.604231         1.060859
 H         2.243874        -0.099580        -1.910643
 H         1.944835        -1.721081        -1.355954
 H         4.781203        -1.145179         2.509412
 H         4.840171         0.740709         2.465309
 H         2.106431        -1.751368         1.295431
