19
Iteration:  4648
 C        -0.132530        -0.093731        -0.083619
 C         1.362764        -0.095402         0.095805
 C         2.331111         1.101050         0.147178
 C         3.257069        -0.186711         0.150241
 C         2.393338        -0.641922        -1.007274
 O         4.550894        -0.266564         0.682463
 C         4.278306        -0.194846         2.065146
 O         2.830239        -0.144980         2.383582
 C         2.279786        -0.719916         1.182930
 H        -0.564856         0.408424         0.862952
 H        -0.480681         0.518161        -0.927764
 H        -0.465354        -1.079015         0.111570
 H         2.459330         1.713896        -0.786269
 H         2.353107         1.563907         1.104772
 H         2.478262        -0.047415        -1.955805
 H         2.182509        -1.693115        -1.263704
 H         4.766191        -1.071805         2.678516
 H         4.505641         0.759180         2.482862
 H         2.343942        -1.852049         1.244914
