19
Iteration:  2323
 C        -0.226079        -0.018905        -0.014420
 C         1.321822        -0.050310         0.023603
 C         2.387924         1.136697         0.108272
 C         3.258097        -0.061680         0.133072
 C         2.380666        -0.818500        -0.929049
 O         4.510682        -0.244596         0.647673
 C         4.320460        -0.153616         2.087813
 O         2.906840        -0.243531         2.465292
 C         2.251860        -0.764256         1.063304
 H        -0.377694         0.404944         1.006842
 H        -0.708267         0.755079        -0.714495
 H        -0.794001        -1.002426        -0.127447
 H         2.541381         1.565630        -0.892590
 H         2.505725         1.827805         0.960532
 H         2.494822        -0.307502        -1.923967
 H         2.359745        -1.870781        -1.041971
 H         4.736631        -1.073115         2.647996
 H         4.791785         0.774503         2.552950
 H         2.345171        -1.840760         1.266639
