19
Iteration:   298
 C        -0.095219        -0.214380         0.074694
 C         1.340263        -0.017282        -0.030543
 C         2.389297         1.169296         0.012772
 C         3.262826        -0.082714         0.174484
 C         2.263313        -0.687712        -0.979099
 O         4.548614        -0.115078         0.704741
 C         4.272087        -0.485002         2.064230
 O         2.903915        -0.141230         2.422305
 C         2.256385        -0.577511         1.174091
 H        -0.614003         0.496647         0.679160
 H        -0.550758        -0.147680        -0.966090
 H        -0.312665        -1.192492         0.620784
 H         2.443870         1.705870        -1.027533
 H         2.467926         1.881848         0.907446
 H         2.392635        -0.049606        -1.940199
 H         2.191573        -1.822566        -1.168444
 H         4.290785        -1.573771         2.174614
 H         5.041854        -0.054291         2.740624
 H         2.057497        -1.727348         1.275693
