19
Iteration:   317
 C        -0.182537        -0.191444        -0.001844
 C         1.367859         0.006340         0.198108
 C         2.397247         1.269286         0.076445
 C         3.211745        -0.120987         0.087455
 C         2.406518        -0.739038        -1.010596
 O         4.524603        -0.159736         0.633461
 C         4.230792        -0.479109         2.073079
 O         2.899389        -0.066452         2.369073
 C         2.297955        -0.685251         1.214897
 H        -0.802484         0.468833         0.754376
 H        -0.478602        -0.022794        -0.989215
 H        -0.515424        -1.257033         0.262170
 H         2.469859         1.847758        -0.764289
 H         2.389874         1.824593         1.028456
 H         2.308219        -0.306043        -2.009924
 H         2.338960        -1.756593        -0.994269
 H         4.477552        -1.603128         2.275210
 H         4.929326         0.142412         2.713807
 H         2.260315        -1.764467         1.245503
