19
Iteration:  4478charge 0 multiplicity 1
 C        -0.147507         0.002608        -0.045316
 C         1.365801        -0.066098         0.092407
 C         2.360152         1.182012         0.193532
 C         3.243236        -0.114012         0.138245
 C         2.392766        -0.803093        -1.022339
 O         4.563211        -0.247922         0.661321
 C         4.224592        -0.050422         2.079531
 O         2.858250        -0.347360         2.398493
 C         2.283241        -0.753217         1.158660
 H        -0.534294         0.657717         0.629394
 H        -0.311674         0.295258        -1.064996
 H        -0.620381        -0.950810         0.002776
 H         2.392043         1.736181        -0.790407
 H         2.368398         1.719815         1.136493
 H         2.506164        -0.508950        -2.065227
 H         2.296785        -1.949904        -0.953528
 H         4.852132        -0.771550         2.584527
 H         4.370090         0.990973         2.484280
 H         2.185454        -1.813849         1.159599
