19
Iteration:   826
 C        -0.150605         0.069452        -0.022541
 C         1.359230        -0.102606         0.184712
 C         2.323201         1.139036         0.239300
 C         3.205865        -0.114929         0.047772
 C         2.334141        -0.820693        -0.984207
 O         4.533260        -0.128385         0.609333
 C         4.325409        -0.210165         2.075271
 O         2.866950        -0.262797         2.366392
 C         2.355060        -0.812700         1.146736
 H        -0.417516         0.600758         0.932007
 H        -0.302402         0.667895        -0.950758
 H        -0.724402        -0.785722        -0.120997
 H         2.081790         1.807940        -0.539345
 H         2.271836         1.678243         1.168633
 H         2.339212        -0.382168        -1.993163
 H         2.492582        -1.987456        -1.013474
 H         4.737060        -1.170115         2.207069
 H         4.730689         0.665581         2.641262
 H         2.275485        -1.946254         1.026322
