19
Iteration:  4116charge 0 multiplicity 1
 C        -0.135907        -0.000078        -0.132330
 C         1.315803        -0.125910         0.053162
 C         2.384305         1.112649         0.239148
 C         3.237819        -0.186988         0.139546
 C         2.354578        -0.795838        -1.027787
 O         4.552433        -0.179544         0.663656
 C         4.297253        -0.044478         2.105472
 O         2.834027        -0.316741         2.401379
 C         2.320445        -0.752038         1.174892
 H        -0.561749         0.741715         0.499808
 H        -0.472408         0.376370        -1.142983
 H        -0.713853        -0.854448         0.123928
 H         2.347060         1.979727        -0.467425
 H         2.582847         1.647477         1.206312
 H         2.368513        -0.284736        -1.859207
 H         2.277683        -1.851001        -0.988166
 H         4.918474        -0.807060         2.590528
 H         4.635196         1.020223         2.414074
 H         2.058727        -1.865267         1.170993
