19
Iteration:  3045charge 0 multiplicity 1
 C        -0.067103         0.018083        -0.009887
 C         1.369954        -0.056181         0.043830
 C         2.359435         1.106282         0.057156
 C         3.219235        -0.080758         0.125375
 C         2.325116        -0.807156        -0.922622
 O         4.519121        -0.050201         0.709922
 C         4.229484        -0.240372         2.099461
 O         2.832282        -0.265836         2.401187
 C         2.350378        -0.836026         1.170689
 H        -0.694148         0.561812         0.599484
 H        -0.407558         0.259782        -0.973439
 H        -0.551584        -0.953505         0.012123
 H         2.387450         1.736085        -0.893224
 H         2.527666         1.813636         0.870103
 H         2.362640        -0.256289        -1.864119
 H         2.323865        -1.866211        -1.005909
 H         4.510073        -1.316367         2.189633
 H         4.880931         0.380971         2.723818
 H         2.512214        -1.885369         1.016244
