19
Iteration:   417charge 0 multiplicity 1
 C        -0.115563         0.054760         0.151453
 C         1.422114        -0.091118         0.060119
 C         2.424322         1.112876         0.137455
 C         3.265290        -0.218235         0.134296
 C         2.339159        -0.702879        -1.022200
 O         4.508086        -0.393575         0.729784
 C         4.147448         0.183730         2.016121
 O         2.886654        -0.403029         2.312458
 C         2.340319        -0.829216         1.100591
 H        -0.509971         0.584324         1.025445
 H        -0.399990         0.769300        -0.666628
 H        -0.727176        -0.912009         0.243344
 H         2.439775         1.727545        -0.729420
 H         2.386056         1.694109         1.055840
 H         2.212956        -0.034753        -1.889605
 H         2.079039        -1.696331        -1.209710
 H         4.919716        -0.252410         2.754376
 H         4.000884         1.300746         1.999882
 H         2.326340        -1.916276         1.019534
