19
Iteration:    31
 C        -0.202708        -0.157365        -0.004174
 C         1.350153         0.012065         0.076149
 C         2.266155         1.174480         0.096912
 C         3.164905        -0.133051         0.160858
 C         2.402771        -0.700606        -1.016288
 O         4.556436        -0.219733         0.657069
 C         4.316487        -0.489400         2.054399
 O         2.918644        -0.037195         2.392397
 C         2.319582        -0.650999         1.203889
 H        -0.765460         0.370686         0.930265
 H        -0.670266         0.230763        -0.813831
 H        -0.314281        -1.192205        -0.173234
 H         2.304413         1.899722        -0.760182
 H         2.380735         1.749691         1.001619
 H         2.554045        -0.108054        -1.878729
 H         2.532401        -1.788475        -1.246851
 H         4.478398        -1.434608         2.493370
 H         4.990587         0.162199         2.631606
 H         2.413458        -1.772564         1.376889
