19
Iteration:  1407
 C        -0.162473         0.051050         0.147727
 C         1.412942        -0.022479         0.096893
 C         2.358020         1.125312         0.000720
 C         3.208197        -0.149435         0.115659
 C         2.400507        -0.821512        -1.025254
 O         4.490262        -0.016525         0.747444
 C         4.324640        -0.405532         2.104912
 O         2.851999        -0.205423         2.282935
 C         2.300650        -0.792080         1.127992
 H        -0.443772         0.711701         0.967903
 H        -0.688471         0.389007        -0.709699
 H        -0.525158        -0.933173         0.269165
 H         2.318156         1.624258        -0.986873
 H         2.563121         1.833373         0.877683
 H         2.269857        -0.244444        -1.938106
 H         2.268951        -1.850760        -1.017966
 H         4.608832        -1.422404         2.454470
 H         4.842984         0.244341         2.821851
 H         2.115027        -1.958255         1.162371
