19
Iteration:   791charge 0 multiplicity 1
 C        -0.173724         0.013786         0.041391
 C         1.363486        -0.104895         0.078002
 C         2.366568         1.159111        -0.031570
 C         3.214784        -0.119465         0.121428
 C         2.297304        -0.761861        -1.011495
 O         4.467051         0.030665         0.699151
 C         4.349809        -0.368071         2.098797
 O         2.937795        -0.299596         2.452426
 C         2.319550        -0.773950         1.164260
 H        -0.392584         0.761633         0.761952
 H        -0.673715         0.456563        -0.836153
 H        -0.669801        -0.822893         0.392383
 H         2.329198         1.691606        -0.907575
 H         2.376831         1.785501         0.889834
 H         2.282429        -0.241148        -1.984052
 H         2.330553        -1.934188        -1.093754
 H         4.535448        -1.410343         2.232052
 H         5.084976         0.098866         2.704880
 H         2.380459        -1.953168         1.102404
