19
Iteration:  1141charge 0 multiplicity 1
 C        -0.121711        -0.075761         0.049299
 C         1.336722        -0.015610         0.115261
 C         2.327807         1.114581         0.193637
 C         3.219505        -0.134088         0.127195
 C         2.262914        -0.557962        -1.026630
 O         4.627036        -0.305659         0.614684
 C         4.331812        -0.212846         2.093446
 O         2.833086        -0.247232         2.342184
 C         2.312110        -0.776270         1.157858
 H        -0.709936         0.470096         0.868078
 H        -0.405790         0.339224        -0.980221
 H        -0.425906        -1.097843         0.156512
 H         2.269131         1.820606        -0.728099
 H         2.469278         1.775932         1.025993
 H         2.414674        -0.039176        -1.905966
 H         2.229348        -1.595186        -1.143611
 H         4.687134        -1.131615         2.610557
 H         4.779126         0.763961         2.372996
 H         2.216971        -1.909880         1.106302
