19
Iteration:  2224charge 0 multiplicity 1
 C        -0.095447         0.125802        -0.019857
 C         1.374604        -0.083592         0.047184
 C         2.376255         1.127588         0.011515
 C         3.191487        -0.192099         0.168309
 C         2.287161        -0.781225        -0.931980
 O         4.530052        -0.203803         0.686781
 C         4.227858        -0.048451         2.045753
 O         2.897519        -0.432922         2.473894
 C         2.390136        -0.767229         1.137689
 H        -0.236833         0.801450         0.815943
 H        -0.672613         0.547805        -0.881666
 H        -0.603255        -0.804104         0.207858
 H         2.333725         1.716405        -0.947079
 H         2.314286         1.749056         0.895572
 H         2.135033        -0.253574        -1.890997
 H         2.056194        -1.808704        -1.063390
 H         4.902971        -0.857264         2.546877
 H         4.231690         0.996535         2.419572
 H         2.591758        -1.822515         1.041075
