19
Iteration:  2597
 C        -0.165031         0.013349         0.086069
 C         1.386031        -0.072657         0.063169
 C         2.301078         1.126804         0.074180
 C         3.304996        -0.169518         0.141335
 C         2.425543        -0.717711        -1.033180
 O         4.559564        -0.249306         0.647863
 C         4.260279        -0.128758         2.128528
 O         2.802254        -0.232733         2.392221
 C         2.309092        -0.806779         1.108573
 H        -0.624254         0.593944         0.842616
 H        -0.592231         0.363904        -0.874871
 H        -0.730658        -0.914879         0.119679
 H         2.275166         1.837466        -0.737620
 H         2.414826         1.657828         1.031344
 H         2.626738        -0.088563        -1.917837
 H         2.272889        -1.829816        -1.231364
 H         4.731250        -0.999251         2.611522
 H         4.464849         0.739943         2.692298
 H         2.424758        -1.929504         1.210678
