19
Iteration:  2321
 C        -0.240656        -0.025690        -0.020179
 C         1.331616        -0.059188         0.043793
 C         2.393866         1.145160         0.105730
 C         3.266417        -0.073520         0.140947
 C         2.384765        -0.798313        -0.940109
 O         4.510412        -0.253706         0.635348
 C         4.330919        -0.139971         2.102627
 O         2.896063        -0.233046         2.468633
 C         2.257158        -0.773870         1.055201
 H        -0.398584         0.431676         1.060286
 H        -0.728350         0.747488        -0.707159
 H        -0.779303        -0.984827        -0.134046
 H         2.568524         1.594173        -0.843479
 H         2.504469         1.806427         0.904428
 H         2.444988        -0.328820        -1.967387
 H         2.322284        -1.890453        -1.025511
 H         4.676498        -1.076695         2.632666
 H         4.750237         0.734054         2.533960
 H         2.360357        -1.883161         1.239636
