19
Iteration:  3252
 C        -0.180387        -0.047643         0.069425
 C         1.415820        -0.054478        -0.011354
 C         2.419311         1.234807         0.129473
 C         3.255459        -0.104486         0.210094
 C         2.401314        -0.733059        -1.066540
 O         4.573843        -0.333736         0.740558
 C         4.280649        -0.012200         2.069243
 O         2.804695        -0.351507         2.349468
 C         2.258536        -0.789050         1.075282
 H        -0.612258         0.570381         0.825839
 H        -0.509235         0.055455        -0.945875
 H        -0.470069        -1.092025         0.396992
 H         2.234508         2.040563        -0.694257
 H         2.214164         1.566101         1.205040
 H         2.206210        -0.263082        -2.111657
 H         2.310955        -1.837587        -0.991773
 H         4.920934        -0.484370         2.847269
 H         4.232308         1.030990         2.262269
 H         2.128249        -1.898850         1.268666
