19
Iteration:   240charge 0 multiplicity 1
 C        -0.126676         0.085370         0.045786
 C         1.380473        -0.090100         0.005908
 C         2.274024         1.150034         0.133253
 C         3.190812        -0.223980         0.176652
 C         2.336872        -0.790832        -1.052204
 O         4.512618        -0.069604         0.652292
 C         4.291702        -0.202610         2.148683
 O         2.879701        -0.215854         2.361664
 C         2.385907        -0.926592         1.174549
 H        -0.307641         0.724338         1.015069
 H        -0.404725         0.627607        -0.760641
 H        -0.764303        -0.796787        -0.089274
 H         2.403903         1.615634        -0.755491
 H         2.255221         1.851314         0.959255
 H         2.505862        -0.334080        -2.019580
 H         2.290553        -1.808216        -1.109792
 H         4.673571        -1.235018         2.368192
 H         4.904095         0.592423         2.603168
 H         2.281672        -2.025691         1.188230
