19
Iteration:  4769charge 0 multiplicity 1
 C        -0.129517         0.038495         0.009188
 C         1.407153        -0.125469         0.067891
 C         2.384996         1.124922         0.184130
 C         3.205124        -0.166708         0.128653
 C         2.384211        -0.688897        -1.036384
 O         4.506832        -0.329384         0.708229
 C         4.265563         0.066094         2.120282
 O         2.891055        -0.302735         2.347222
 C         2.258144        -0.877569         1.106976
 H        -0.618226         0.180924         0.963352
 H        -0.442134         0.915676        -0.619819
 H        -0.463100        -0.876753        -0.400651
 H         2.366722         1.727517        -0.832368
 H         2.110178         1.735342         1.034635
 H         2.457256        -0.174459        -2.012783
 H         2.352225        -1.843984        -1.276507
 H         4.949689        -0.495678         2.916330
 H         4.278866         1.082261         2.300671
 H         2.251211        -1.940583         1.285920
