19
Iteration:  3402
 C        -0.112614        -0.138196         0.088668
 C         1.369885        -0.048698         0.060552
 C         2.307620         1.175666         0.073734
 C         3.246176        -0.125208         0.169393
 C         2.390158        -0.703522        -1.024246
 O         4.592970        -0.109722         0.656079
 C         4.219417        -0.349786         2.139933
 O         2.848161        -0.153590         2.354743
 C         2.221122        -0.758790         1.114908
 H        -0.456555         0.818903         0.622534
 H        -0.465326         0.072770        -0.955696
 H        -0.350550        -1.141409         0.316331
 H         2.560063         1.538376        -0.921653
 H         2.450870         1.943423         0.848868
 H         2.354375        -0.288317        -2.042143
 H         2.566238        -1.757714        -0.975160
 H         4.412293        -1.404643         2.511286
 H         4.763697         0.371571         2.873081
 H         2.316819        -1.890878         1.286841
