19
Iteration:  1012charge 0 multiplicity 1
 C        -0.081337        -0.191758         0.054438
 C         1.405502         0.024305         0.100397
 C         2.264896         1.284445         0.192162
 C         3.193623        -0.130356         0.135797
 C         2.291871        -0.655711        -1.023780
 O         4.535302        -0.323915         0.594505
 C         4.284127        -0.342659         2.044326
 O         2.969119        -0.138378         2.392251
 C         2.243223        -0.670854         1.146406
 H        -0.705505         0.093060         0.982240
 H        -0.489605         0.336846        -0.858834
 H        -0.259250        -1.175468        -0.210257
 H         2.418771         1.960773        -0.690407
 H         2.299533         1.666667         1.187737
 H         2.437404        -0.092501        -2.053375
 H         2.491122        -1.831859        -1.037123
 H         4.594984        -1.356027         2.299119
 H         4.738194         0.458917         2.696019
 H         2.096615        -1.808850         1.311761
