19
Iteration:  2744charge 0 multiplicity 1
 C        -0.070705        -0.010322         0.031775
 C         1.345456        -0.060229        -0.024428
 C         2.318133         1.151790         0.113508
 C         3.292561        -0.142716         0.116842
 C         2.379408        -0.766813        -1.004757
 O         4.502640        -0.196559         0.699720
 C         4.260170        -0.150863         2.110656
 O         2.831214        -0.360958         2.445915
 C         2.298327        -0.720807         1.133456
 H        -0.346396         0.788686         0.821241
 H        -0.508910         0.365451        -0.911864
 H        -0.484749        -1.000967         0.278553
 H         2.400264         1.707835        -0.838161
 H         2.271126         1.861164         0.928293
 H         2.549742        -0.194523        -1.967992
 H         2.271812        -1.796104        -1.226405
 H         4.950841        -0.771732         2.690669
 H         4.306372         0.890527         2.373361
 H         2.280895        -1.880250         1.015090
