19
Iteration:  3042
 C        -0.061497         0.016705        -0.039235
 C         1.372418        -0.070250         0.065782
 C         2.345528         1.088784         0.072733
 C         3.229532        -0.094884         0.141565
 C         2.335936        -0.794322        -0.920855
 O         4.514079        -0.037164         0.674415
 C         4.239986        -0.269178         2.089632
 O         2.798460        -0.264546         2.387359
 C         2.357710        -0.797066         1.193860
 H        -0.533102         0.598332         0.812682
 H        -0.297356         0.365783        -1.079912
 H        -0.445673        -0.966107         0.058282
 H         2.378834         1.707073        -0.895445
 H         2.422981         1.899038         0.849230
 H         2.343153        -0.230238        -1.802999
 H         2.305693        -1.983485        -0.930730
 H         4.612977        -1.353307         2.214410
 H         4.816487         0.413730         2.766457
 H         2.469889        -1.916707         0.995419
