19
Iteration:  3176charge 0 multiplicity 1
 C        -0.111734         0.069293        -0.046010
 C         1.373888        -0.073426         0.104229
 C         2.267429         1.185749         0.105642
 C         3.170776        -0.115933         0.178497
 C         2.389022        -0.796714        -0.926342
 O         4.597624        -0.201796         0.612779
 C         4.256228        -0.046627         2.112805
 O         2.827562        -0.358268         2.372995
 C         2.322564        -0.855008         1.131029
 H        -0.478013         0.317438         0.908051
 H        -0.330010         0.882988        -0.724440
 H        -0.539730        -0.927928        -0.336002
 H         2.236816         1.606780        -1.000584
 H         2.343731         1.540409         1.187172
 H         2.696358        -0.461391        -2.043868
 H         2.480345        -1.924830        -0.936631
 H         4.893759        -0.762751         2.753975
 H         4.384001         0.972288         2.527844
 H         2.403104        -2.034371         1.186554
