19
Iteration:  4971charge 0 multiplicity 1
 C        -0.123394        -0.060595        -0.057005
 C         1.362498        -0.050576         0.074478
 C         2.424571         1.187345         0.152080
 C         3.234226        -0.189120         0.135245
 C         2.349127        -0.763766        -0.950716
 O         4.532240        -0.162829         0.707586
 C         4.266905        -0.207990         2.104864
 O         2.872404        -0.180790         2.310165
 C         2.235488        -0.784239         1.165112
 H        -0.564246         0.029462         0.877857
 H        -0.369080         0.610957        -0.872711
 H        -0.582756        -1.052829        -0.346853
 H         2.346181         1.730250        -0.807504
 H         2.647063         1.675956         1.090442
 H         2.294234        -0.102838        -1.947314
 H         2.196655        -1.938593        -1.048477
 H         4.679702        -1.149853         2.563271
 H         4.585774         0.660908         2.608286
 H         2.214726        -1.875021         1.324010
