19
Iteration:  3495
 C        -0.142742        -0.076939        -0.028673
 C         1.337795        -0.027083         0.028878
 C         2.294844         1.167752         0.175234
 C         3.230441        -0.224653         0.147924
 C         2.406784        -0.694705        -0.938472
 O         4.580273        -0.339402         0.695673
 C         4.252616        -0.030789         2.059780
 O         2.871701        -0.251932         2.370384
 C         2.314855        -0.777697         1.129209
 H        -0.447949         0.270936         0.953211
 H        -0.511512         0.726766        -0.677426
 H        -0.447179        -1.103325        -0.463941
 H         2.481163         1.784561        -0.727468
 H         2.173526         1.765780         1.104716
 H         2.405715        -0.094800        -1.825109
 H         2.330251        -1.802336        -1.224342
 H         4.844871        -0.650513         2.736193
 H         4.395185         0.969649         2.377990
 H         2.126239        -1.786979         1.018337
