19
Iteration:  1992
 C        -0.123251        -0.060736         0.084652
 C         1.414125        -0.076861         0.040446
 C         2.301738         1.154130         0.094322
 C         3.161054        -0.066303         0.129322
 C         2.418330        -0.756845        -0.936796
 O         4.462158        -0.283799         0.683920
 C         4.294300        -0.430620         2.064378
 O         2.863440        -0.029890         2.349007
 C         2.364442        -0.650859         1.094613
 H        -0.625561         0.334548         1.039222
 H        -0.573686         0.497829        -0.720040
 H        -0.398917        -1.068265        -0.088610
 H         2.382536         1.850647        -0.815528
 H         2.264012         1.795857         1.023190
 H         2.451811        -0.321663        -1.933978
 H         2.342902        -1.872153        -1.011953
 H         4.612675        -1.412313         2.439530
 H         4.826717         0.338451         2.616073
 H         2.451540        -1.801415         1.285201
