19
Iteration:  3459
 C        -0.126752         0.005230        -0.052215
 C         1.385746        -0.054845         0.087212
 C         2.317035         1.167679         0.112441
 C         3.278870        -0.237666         0.141990
 C         2.328394        -0.792637        -0.922231
 O         4.545223        -0.089838         0.680659
 C         4.224877        -0.141983         2.128507
 O         2.840104        -0.317836         2.349945
 C         2.351524        -0.803635         1.136676
 H        -0.562611         0.655119         0.677043
 H        -0.392590         0.340127        -1.070436
 H        -0.753995        -0.921473         0.161194
 H         2.471161         1.747137        -0.798335
 H         2.404031         1.770523         1.005431
 H         2.263530        -0.116495        -1.802728
 H         2.369229        -1.800784        -1.143017
 H         4.761263        -1.051615         2.463245
 H         4.709125         0.735828         2.411128
 H         2.363325        -1.885286         1.234290
