19
Iteration:  3968charge 0 multiplicity 1
 C        -0.126733        -0.048655        -0.089159
 C         1.358745        -0.073343         0.089267
 C         2.346839         1.182467         0.108611
 C         3.218164        -0.171375         0.134166
 C         2.395608        -0.726358        -0.928354
 O         4.526844        -0.154289         0.614909
 C         4.251935        -0.152856         2.148338
 O         2.866507        -0.310734         2.413426
 C         2.323014        -0.770641         1.222783
 H        -0.708305         0.835791         0.427247
 H        -0.359734         0.162085        -1.134845
 H        -0.596764        -1.081925         0.157563
 H         2.400063         1.714687        -0.835362
 H         2.451333         1.721874         1.047778
 H         2.435992        -0.232918        -1.937958
 H         2.258877        -1.733665        -1.226707
 H         4.739631        -1.125851         2.452813
 H         4.582039         0.828977         2.470096
 H         2.208113        -1.862673         1.118434
