19
Iteration:  3166
 C        -0.070326         0.021900        -0.047972
 C         1.372887        -0.102385         0.113111
 C         2.265948         1.152125         0.149999
 C         3.253504        -0.153772         0.172381
 C         2.435186        -0.786537        -0.947707
 O         4.558453        -0.180171         0.635450
 C         4.253515        -0.067596         2.065978
 O         2.796676        -0.362080         2.390046
 C         2.338082        -0.792147         1.174075
 H        -0.528785         0.305831         0.882663
 H        -0.336054         0.869055        -0.670567
 H        -0.705372        -0.822570        -0.440074
 H         2.331000         1.706518        -0.907758
 H         2.230897         2.115774         0.768011
 H         2.294789        -0.371381        -2.039550
 H         2.269935        -1.867676        -0.886627
 H         4.903794        -0.921944         2.464567
 H         4.502255         0.950450         2.437573
 H         2.087617        -1.897282         1.044814
