19
Iteration:   159charge 0 multiplicity 1
 C        -0.230398        -0.045838         0.035274
 C         1.353339        -0.007505         0.034926
 C         2.420762         1.122724         0.173117
 C         3.236662        -0.284141         0.149458
 C         2.341163        -0.593348        -1.050268
 O         4.601913        -0.307068         0.652409
 C         4.255924        -0.010100         2.048113
 O         2.877437        -0.340526         2.456053
 C         2.267375        -0.806460         1.119608
 H        -0.687442         0.223919         0.938740
 H        -0.635278         0.715713        -0.817151
 H        -0.554609        -1.078078         0.125876
 H         2.662630         1.858539        -0.676309
 H         2.476446         1.746715         1.067776
 H         2.636685        -0.180101        -2.010137
 H         2.109544        -1.677385        -1.370829
 H         5.053668        -0.342177         2.812774
 H         4.286549         1.107995         2.049652
 H         2.160579        -1.872414         1.237115
