19
Iteration:  1320
 C        -0.118171        -0.127734         0.011090
 C         1.337266         0.007992         0.066220
 C         2.492925         1.207280         0.271699
 C         3.195792        -0.147447         0.213051
 C         2.304238        -0.619350        -1.028722
 O         4.481641        -0.342021         0.624554
 C         4.291662        -0.162065         1.966599
 O         2.850664        -0.211918         2.360319
 C         2.290895        -0.784640         1.185587
 H        -0.719897         0.246758         0.901342
 H        -0.412142         0.338691        -0.922358
 H        -0.351045        -1.229962        -0.077525
 H         2.679704         1.749391        -0.612377
 H         2.559143         1.749445         1.253451
 H         2.380820        -0.185133        -2.049576
 H         2.152379        -1.658599        -1.158323
 H         4.850568        -0.918070         2.530889
 H         4.733506         0.839614         2.155979
 H         2.185038        -1.900584         1.208942
