19
Iteration:  2442
 C        -0.175184        -0.069506         0.082004
 C         1.351081         0.012212         0.076640
 C         2.374043         1.122108         0.037010
 C         3.276180        -0.123759         0.076218
 C         2.324765        -0.737211        -0.973758
 O         4.605435        -0.238563         0.710869
 C         4.273844        -0.173292         2.114280
 O         2.805841        -0.249419         2.333694
 C         2.372752        -0.714206         1.157537
 H        -0.626138         0.396754         1.006319
 H        -0.631876         0.406505        -0.864182
 H        -0.339381        -1.195418         0.121902
 H         2.547444         1.708957        -0.877992
 H         2.244973         1.718001         0.936463
 H         2.290733        -0.293611        -2.046834
 H         2.056018        -1.812318        -1.043234
 H         4.588486        -1.087685         2.679297
 H         4.514785         0.649685         2.755382
 H         2.125244        -1.818845         0.993270
