19
Iteration:  3694
 C        -0.161245        -0.043947        -0.023961
 C         1.345919        -0.094750         0.055277
 C         2.344041         1.147326         0.064272
 C         3.268105        -0.140501         0.136886
 C         2.388258        -0.807748        -1.022316
 O         4.591109        -0.055375         0.713227
 C         4.286424        -0.293916         2.170653
 O         2.815930        -0.185770         2.382884
 C         2.292073        -0.771443         1.150670
 H        -0.420379         0.067934         1.007969
 H        -0.384355         0.734138        -0.676245
 H        -0.584631        -1.034496        -0.322770
 H         2.345647         1.905843        -0.741598
 H         2.423340         1.781415         0.955234
 H         2.105518        -0.473983        -2.070208
 H         2.286301        -1.873865        -1.019463
 H         4.684544        -1.290939         2.476525
 H         4.730528         0.609576         2.626079
 H         2.055068        -1.842808         1.064803
