19
Iteration:  2013
 C        -0.151993        -0.137152         0.034769
 C         1.444834        -0.006670         0.109342
 C         2.304456         1.237365        -0.000647
 C         3.287544        -0.154965         0.117290
 C         2.282593        -0.720461        -0.973275
 O         4.614027        -0.218655         0.630215
 C         4.253392        -0.382400         2.148766
 O         2.883535        -0.107521         2.383267
 C         2.256685        -0.697619         1.208576
 H        -0.701344         0.385507         0.864428
 H        -0.596986         0.372089        -0.805010
 H        -0.495225        -1.139389        -0.002422
 H         2.360239         1.757974        -0.976331
 H         2.290882         2.011823         0.807562
 H         2.207213        -0.214810        -1.950751
 H         2.434233        -1.781611        -1.156350
 H         4.396628        -1.541382         2.349735
 H         5.003442         0.192396         2.719993
 H         1.931142        -1.814981         1.410492
