19
Iteration:   111charge 0 multiplicity 1
 C        -0.174760         0.104746         0.071933
 C         1.382504        -0.094983         0.027011
 C         2.267275         1.088605         0.083401
 C         3.268469        -0.110469         0.146046
 C         2.375939        -0.795764        -0.948879
 O         4.558029        -0.103888         0.638046
 C         4.255655        -0.241128         2.114963
 O         2.827856        -0.297793         2.365174
 C         2.409181        -0.800738         1.121688
 H        -0.428897         0.836289         0.837164
 H        -0.568292         0.529560        -0.857587
 H        -0.714160        -0.757900         0.500513
 H         2.291496         1.750978        -0.796651
 H         2.158868         1.760711         1.024841
 H         2.456144        -0.390847        -2.018700
 H         2.277527        -1.863496        -1.036333
 H         4.646720        -1.190195         2.281354
 H         4.737108         0.523725         2.743745
 H         2.474324        -1.917697         1.087379
