19
Iteration:  2599
 C        -0.165730         0.000191         0.087258
 C         1.402554        -0.075238         0.066663
 C         2.306349         1.123026         0.087704
 C         3.298890        -0.173707         0.129142
 C         2.432046        -0.707132        -1.036111
 O         4.548006        -0.243112         0.639804
 C         4.249140        -0.114140         2.128060
 O         2.798808        -0.241782         2.398945
 C         2.314096        -0.801481         1.112725
 H        -0.631039         0.663500         0.853629
 H        -0.568860         0.425438        -0.849899
 H        -0.823116        -0.933450         0.082861
 H         2.352337         1.758130        -0.752063
 H         2.475774         1.653988         0.981234
 H         2.598785        -0.165180        -1.955860
 H         2.288936        -1.785616        -1.170898
 H         4.676188        -0.996418         2.589690
 H         4.522178         0.696633         2.697493
 H         2.427333        -1.921537         1.210819
