19
Iteration:  1501
 C        -0.174393         0.017837        -0.023347
 C         1.330279         0.001972         0.111015
 C         2.332986         1.163891         0.123033
 C         3.268979        -0.187914         0.132818
 C         2.299693        -0.789399        -0.945112
 O         4.543387        -0.214753         0.648474
 C         4.244492        -0.189269         2.080064
 O         2.933138        -0.262015         2.363455
 C         2.359561        -0.794517         1.182836
 H        -0.712043         0.629933         0.811566
 H        -0.288477         0.679393        -0.958199
 H        -0.518710        -0.962301        -0.421568
 H         2.389310         1.722195        -0.781700
 H         2.438497         1.848532         0.988389
 H         2.184308        -0.175611        -1.850240
 H         2.047356        -1.895171        -0.984807
 H         4.884289        -1.013942         2.397103
 H         4.673511         0.647075         2.577069
 H         2.255749        -1.869002         1.311933
