19
Iteration:   360
 C        -0.169943         0.083237        -0.006467
 C         1.351237        -0.075167         0.071208
 C         2.308295         1.126156         0.070517
 C         3.176037        -0.145563         0.115767
 C         2.343422        -0.819025        -1.085864
 O         4.516570        -0.187053         0.647117
 C         4.337159        -0.162457         2.120907
 O         2.916262        -0.261369         2.479286
 C         2.335933        -0.802532         1.217754
 H        -0.605542         0.406831         1.019588
 H        -0.481099         0.684733        -0.786971
 H        -0.555150        -0.871065        -0.370818
 H         2.175429         1.668362        -0.764678
 H         2.460563         1.693078         0.997472
 H         2.335748        -0.245654        -1.999716
 H         2.344301        -1.814033        -1.228658
 H         4.921989        -1.045991         2.473171
 H         4.837448         0.741078         2.554854
 H         2.368863        -1.842271         1.254800
