19
Iteration:  4230charge 0 multiplicity 1
 C        -0.183926        -0.045919         0.047012
 C         1.384259        -0.060507         0.054901
 C         2.312390         1.119460         0.071415
 C         3.263306        -0.221371         0.176548
 C         2.459269        -0.729343        -1.062614
 O         4.544022        -0.245272         0.731113
 C         4.272180        -0.137868         2.136347
 O         2.784248        -0.129838         2.336624
 C         2.329466        -0.797608         1.080303
 H        -0.463694         0.146003         1.076528
 H        -0.419919         0.755407        -0.547259
 H        -0.452627        -1.087833        -0.164122
 H         2.327626         1.761281        -0.810427
 H         2.240406         1.561231         1.026652
 H         2.506760        -0.069793        -1.952791
 H         2.168390        -1.757276        -1.016950
 H         4.623208        -1.072161         2.664401
 H         4.743243         0.793705         2.550074
 H         2.344240        -1.892101         1.253100
