19
Iteration:   688
 C        -0.161047         0.053421         0.000646
 C         1.399688        -0.060079         0.125913
 C         2.292962         1.178661         0.118300
 C         3.195810        -0.092352         0.052356
 C         2.354477        -0.802257        -0.930338
 O         4.523692        -0.237463         0.636568
 C         4.342072        -0.162991         2.079293
 O         2.883363        -0.307593         2.417989
 C         2.347144        -0.776486         1.133221
 H        -0.657937         0.334183         0.941588
 H        -0.464667         0.695218        -0.765513
 H        -0.674714        -0.934004        -0.298318
 H         2.263456         1.879244        -0.814679
 H         2.461823         1.571194         1.128312
 H         2.087163        -0.336470        -1.933153
 H         2.391176        -1.854320        -0.998832
 H         4.884442        -0.945839         2.531389
 H         4.478627         0.861802         2.458404
 H         2.382229        -1.950072         1.139825
