19
Iteration:  2503charge 0 multiplicity 1
 C        -0.198450         0.070377        -0.001967
 C         1.384019        -0.163397         0.034450
 C         2.292515         1.099238         0.108401
 C         3.194460        -0.083226         0.107913
 C         2.362496        -0.753319        -1.008645
 O         4.644771        -0.243308         0.642627
 C         4.277354        -0.151544         2.161393
 O         2.884002        -0.227238         2.412117
 C         2.314702        -0.819076         1.153398
 H        -0.619884         0.549543         0.911494
 H        -0.445671         0.749320        -0.771178
 H        -0.816811        -0.763914        -0.268641
 H         2.319863         1.753267        -0.831045
 H         2.121033         1.673422         1.013164
 H         2.373446        -0.324328        -1.987512
 H         2.237966        -1.808307        -0.904057
 H         4.873404        -0.985626         2.453861
 H         4.639045         0.791125         2.699150
 H         2.253179        -1.841560         1.362115
