19
Iteration:  2771
 C        -0.156779         0.027683         0.048636
 C         1.306336        -0.059306         0.055846
 C         2.356030         1.109883         0.125944
 C         3.290340        -0.170727         0.093036
 C         2.400184        -0.744467        -0.964551
 O         4.544112        -0.171085         0.700030
 C         4.263581        -0.076188         2.158634
 O         2.807404        -0.358142         2.300290
 C         2.340652        -0.821325         1.107535
 H        -0.440687         0.705656         0.820423
 H        -0.389157         0.658519        -0.856942
 H        -0.734649        -0.925221         0.086316
 H         2.579347         1.788416        -0.740193
 H         2.367184         1.758176         1.059550
 H         2.532564        -0.480612        -1.994407
 H         2.434600        -1.897021        -0.969446
 H         4.872302        -0.789733         2.744635
 H         4.291484         0.986769         2.493764
 H         2.171782        -1.872972         1.061799
