19
Iteration:  1792charge 0 multiplicity 1
 C        -0.224469         0.125515         0.021228
 C         1.270515        -0.080987         0.144672
 C         2.397627         1.129960         0.090515
 C         3.248068        -0.142168         0.074438
 C         2.370733        -0.832769        -0.987069
 O         4.572397        -0.202770         0.631322
 C         4.258411        -0.157673         2.126017
 O         2.856165        -0.293322         2.372159
 C         2.357729        -0.800434         1.189878
 H        -0.538367         0.617921         0.912059
 H        -0.252643         0.805374        -0.868288
 H        -0.945439        -0.755814        -0.024663
 H         2.401552         1.692070        -0.892003
 H         2.419213         1.795439         1.035030
 H         2.478486        -0.353324        -1.988210
 H         2.553168        -1.943889        -1.148518
 H         4.772796        -1.005543         2.475796
 H         4.558994         0.814257         2.562673
 H         2.464580        -1.973210         1.179174
