19
Iteration:   220
 C        -0.174895         0.100643        -0.036998
 C         1.353273        -0.131935         0.106938
 C         2.369032         0.997230         0.162988
 C         3.235300        -0.214251         0.113194
 C         2.298202        -0.728019        -0.998813
 O         4.550155        -0.152377         0.676931
 C         4.322790        -0.088217         2.079420
 O         2.892962        -0.286043         2.373074
 C         2.292068        -0.789637         1.162179
 H        -0.578562         0.345633         0.996095
 H        -0.511455         0.846809        -0.742610
 H        -0.615977        -0.861920        -0.428686
 H         2.497758         1.762045        -0.616088
 H         2.410428         1.498501         1.199487
 H         2.271156        -0.140746        -1.991153
 H         2.328893        -1.782049        -1.283173
 H         4.967819        -0.781124         2.547602
 H         4.534200         0.953321         2.442780
 H         2.172636        -1.923101         1.223605
