19
Iteration:  3938
 C        -0.153506        -0.093138        -0.045208
 C         1.392784        -0.030687         0.030050
 C         2.359251         1.145528         0.220954
 C         3.198877        -0.198454         0.112226
 C         2.339953        -0.657638        -1.029136
 O         4.581745        -0.320963         0.751657
 C         4.310495         0.008887         2.065932
 O         2.791403        -0.282664         2.348138
 C         2.316585        -0.802243         1.183987
 H        -0.572175         0.597491         0.749065
 H        -0.454832         0.190438        -0.996053
 H        -0.495322        -1.064720         0.086136
 H         2.397947         1.847577        -0.663304
 H         2.455669         1.587249         1.226967
 H         2.431430        -0.135366        -1.997540
 H         2.104085        -1.669922        -1.243734
 H         5.052729        -0.629676         2.670185
 H         4.655190         1.059285         2.231262
 H         2.194537        -1.940873         1.091575
