19
Iteration:  3142charge 0 multiplicity 1
 C        -0.140922        -0.051735        -0.046971
 C         1.299538        -0.071950         0.051629
 C         2.397599         1.118034         0.089334
 C         3.184682        -0.170068         0.174969
 C         2.324133        -0.728056        -1.055235
 O         4.545954        -0.183656         0.691540
 C         4.281042        -0.115743         2.200544
 O         2.881540        -0.254295         2.386624
 C         2.354851        -0.789227         1.165513
 H        -0.593393         0.195778         0.879384
 H        -0.609476         0.616257        -0.751041
 H        -0.556556        -1.005400        -0.293296
 H         2.423089         1.880621        -0.773259
 H         2.618582         1.810071         0.965994
 H         2.441156        -0.156531        -2.033798
 H         2.258343        -1.872528        -1.210228
 H         4.848473        -1.019756         2.511108
 H         4.631990         0.812261         2.677446
 H         2.201259        -1.892321         1.037312
