19
Iteration:  2095
 C        -0.140058         0.084503         0.068891
 C         1.382429        -0.063279         0.101105
 C         2.331402         1.080009         0.100451
 C         3.208371        -0.162054         0.165359
 C         2.310664        -0.795352        -1.055159
 O         4.547582        -0.186353         0.647190
 C         4.322012        -0.206416         2.174171
 O         2.881695        -0.193065         2.325795
 C         2.266067        -0.817431         1.122514
 H        -0.572630         0.675701         0.868106
 H        -0.460004         0.555880        -0.930450
 H        -0.684321        -0.933289         0.182678
 H         2.634393         1.543070        -0.961729
 H         2.328194         1.697645         1.040174
 H         2.351887        -0.175598        -2.011390
 H         2.264477        -1.893871        -1.085866
 H         4.785927        -1.015045         2.653497
 H         4.740820         0.781743         2.619480
 H         2.485173        -1.947575         1.142271
