19
Iteration:  4643
 C        -0.157922        -0.075776        -0.068693
 C         1.373088        -0.110475         0.084215
 C         2.374237         1.074500         0.123847
 C         3.258004        -0.160648         0.202036
 C         2.350653        -0.649757        -0.986692
 O         4.551536        -0.240804         0.684318
 C         4.269657        -0.220598         2.069197
 O         2.834207        -0.153364         2.338949
 C         2.297859        -0.707100         1.202824
 H        -0.520004         0.366325         0.841176
 H        -0.502607         0.442140        -0.975554
 H        -0.606631        -1.158530        -0.145205
 H         2.439595         1.653227        -0.833915
 H         2.372542         1.535140         1.179454
 H         2.530267         0.052683        -1.921394
 H         2.122140        -1.713495        -1.216011
 H         4.697428        -1.007798         2.598538
 H         4.553098         0.763908         2.564101
 H         2.469951        -1.770292         1.230351
