19
Iteration:  2705
 C        -0.134300        -0.125225        -0.062717
 C         1.399487        -0.032873         0.091984
 C         2.403712         1.112230         0.201845
 C         3.235200        -0.154584         0.128128
 C         2.298466        -0.665914        -0.976753
 O         4.516696        -0.270656         0.679634
 C         4.271998        -0.145810         2.104388
 O         2.779730        -0.224257         2.354754
 C         2.383538        -0.716518         1.095289
 H        -0.526781         0.572191         0.670003
 H        -0.517254         0.413772        -0.973712
 H        -0.601120        -1.093020         0.088566
 H         2.576812         1.836853        -0.633102
 H         2.465693         1.524393         1.261465
 H         2.495074        -0.306140        -1.971597
 H         2.222472        -1.805473        -0.896215
 H         4.849054        -0.955967         2.621712
 H         4.552970         0.919927         2.371070
 H         2.354080        -1.787786         1.137947
