19
Iteration:  3954
 C        -0.119285        -0.070330        -0.087829
 C         1.359248        -0.038668         0.090323
 C         2.409511         1.092220         0.176163
 C         3.265876        -0.145605         0.223645
 C         2.296483        -0.691361        -1.049511
 O         4.532452        -0.224324         0.617282
 C         4.296784        -0.086513         2.105028
 O         2.862679        -0.267762         2.441274
 C         2.244486        -0.821551         1.094592
 H        -0.584607         0.607061         0.591970
 H        -0.398019         0.099156        -1.229511
 H        -0.570734        -1.099731         0.248397
 H         2.601946         1.756899        -0.651138
 H         2.226542         1.782110         1.002362
 H         2.341400         0.054774        -1.881044
 H         2.486699        -1.861426        -1.005483
 H         4.878843        -0.780084         2.659729
 H         4.459039         0.949581         2.571027
 H         2.114283        -1.839897         1.340709
