19
Iteration:  2127charge 0 multiplicity 1
 C        -0.117000        -0.082468         0.095565
 C         1.418049         0.033271         0.112942
 C         2.504385         1.184031         0.120255
 C         3.227773        -0.142088         0.106068
 C         2.321211        -0.764073        -0.969254
 O         4.534451        -0.320307         0.580426
 C         4.215472        -0.102887         2.091400
 O         2.803376        -0.269431         2.374543
 C         2.222132        -0.736046         1.138920
 H        -0.590795         0.224310         0.990975
 H        -0.578953         0.599800        -0.667784
 H        -0.412365        -1.153465        -0.083849
 H         2.759761         1.760144        -0.876979
 H         2.559305         1.851378         1.027141
 H         2.296668        -0.352756        -2.014175
 H         2.277593        -1.855621        -0.986805
 H         4.826531        -0.772076         2.743465
 H         4.532786         0.943635         2.397361
 H         2.330688        -1.832687         1.052177
