19
Iteration:  2594charge 0 multiplicity 1
 C        -0.161639         0.025918         0.072777
 C         1.359396        -0.072223         0.059065
 C         2.301782         1.132629         0.067143
 C         3.297441        -0.164351         0.153421
 C         2.415204        -0.734280        -1.029921
 O         4.577588        -0.254180         0.665113
 C         4.267299        -0.158199         2.131488
 O         2.807645        -0.222466         2.376944
 C         2.310181        -0.811754         1.106870
 H        -0.607461         0.572420         0.901976
 H        -0.587561         0.319220        -0.903294
 H        -0.581398        -0.961647         0.194084
 H         2.189600         1.927372        -0.756882
 H         2.303365         1.668860         1.083910
 H         2.620766        -0.025431        -1.878878
 H         2.285624        -1.817824        -1.298113
 H         4.820500        -1.000529         2.620680
 H         4.459497         0.880754         2.660887
 H         2.373929        -1.896126         1.184081
