19
Iteration:  1292charge 0 multiplicity 1
 C        -0.141775        -0.038488         0.103880
 C         1.314621         0.067843         0.069874
 C         2.289648         1.258021         0.116641
 C         3.300560        -0.138905         0.150347
 C         2.311901        -0.629266        -1.065795
 O         4.598444        -0.441693         0.672343
 C         4.245806        -0.103265         2.041687
 O         2.861875        -0.401248         2.430745
 C         2.367616        -0.729920         1.129780
 H        -0.595372         0.500113         0.877732
 H        -0.609072         0.275670        -0.864314
 H        -0.361771        -1.122225         0.161967
 H         2.304376         1.855585        -0.844858
 H         2.263241         1.895097         0.976389
 H         2.302436        -0.183735        -2.059098
 H         2.368567        -1.797270        -1.137588
 H         4.917322        -0.655652         2.704473
 H         4.510749         0.950818         2.112230
 H         2.191443        -1.817056         1.084704
