19
Iteration:  2810charge 0 multiplicity 1
 C        -0.131852        -0.042721        -0.027363
 C         1.393121        -0.084666         0.031417
 C         2.383985         1.106939         0.220230
 C         3.210806        -0.205111         0.194530
 C         2.356002        -0.705061        -1.012713
 O         4.513699        -0.251095         0.705923
 C         4.286999        -0.071802         2.085288
 O         2.807625        -0.261431         2.347034
 C         2.331603        -0.773742         1.098979
 H        -0.453343         0.331066         1.021756
 H        -0.439633         0.712482        -0.801763
 H        -0.601304        -0.958745        -0.335661
 H         2.469304         1.688230        -0.734953
 H         2.473441         1.796718         1.085052
 H         2.470864        -0.048886        -1.955039
 H         2.087240        -1.744518        -1.148765
 H         5.080919        -0.580211         2.729421
 H         4.425318         0.996768         2.330778
 H         2.289931        -2.028913         1.092791
