19
Iteration:  4805charge 0 multiplicity 1
 C        -0.115064        -0.102200        -0.032298
 C         1.363132         0.017165         0.118130
 C         2.451054         1.191133         0.149121
 C         3.237446        -0.140819         0.151900
 C         2.328593        -0.720864        -0.966383
 O         4.594315        -0.289771         0.612545
 C         4.205224        -0.081741         2.150981
 O         2.831632        -0.272365         2.370211
 C         2.247853        -0.772973         1.119424
 H        -0.628620        -0.031196         0.914047
 H        -0.645652         0.496257        -0.920841
 H        -0.310709        -1.191558        -0.357151
 H         2.609405         1.775579        -0.745371
 H         2.406716         1.803631         1.117437
 H         2.416036        -0.251225        -1.961305
 H         2.165671        -1.843610        -0.894718
 H         4.913256        -0.823534         2.793866
 H         4.505640         0.958981         2.284614
 H         2.049942        -1.918354         0.969705
