19
Iteration:  2169charge 0 multiplicity 1
 C        -0.089067         0.046560         0.039652
 C         1.354637        -0.146897         0.040459
 C         2.388164         1.133137         0.166287
 C         3.206278        -0.151593         0.166479
 C         2.294093        -0.697867        -1.066122
 O         4.590189        -0.424994         0.585258
 C         4.259760         0.016284         2.055874
 O         2.806573        -0.271701         2.473198
 C         2.325887        -0.757895         1.141244
 H        -0.520179         0.417768         0.947161
 H        -0.294913         0.730580        -0.790287
 H        -0.557856        -0.905773        -0.018028
 H         2.414552         1.808228        -0.729045
 H         2.229557         1.653592         1.095979
 H         2.403043        -0.140109        -2.003404
 H         2.390273        -1.769866        -1.124284
 H         4.995185        -0.558181         2.750367
 H         4.509415         1.057499         2.294821
 H         2.119535        -1.802815         1.327076
