19
Iteration:  1085charge 0 multiplicity 1
 C        -0.121237         0.104613         0.159506
 C         1.367235        -0.097963         0.079607
 C         2.390057         1.159822         0.022716
 C         3.240970        -0.076621         0.128254
 C         2.294449        -0.827269        -0.962284
 O         4.546046         0.093224         0.700373
 C         4.293845        -0.323230         2.013821
 O         2.817355        -0.431043         2.345346
 C         2.335012        -0.839658         1.109907
 H        -0.284271         0.744997         1.071373
 H        -0.415961         0.575842        -0.832673
 H        -0.794679        -0.807066         0.259300
 H         2.420625         1.643501        -0.986537
 H         2.295980         1.836192         0.905760
 H         2.204569        -0.374765        -1.870354
 H         2.376542        -1.858304        -0.974996
 H         4.594241        -1.341376         2.369234
 H         4.805028         0.389920         2.659410
 H         2.294215        -1.938880         1.260803
