19
Iteration:  2353charge 0 multiplicity 1
 C        -0.093750         0.012437        -0.064071
 C         1.372543        -0.024814         0.121666
 C         2.282239         1.217813         0.031783
 C         3.221770        -0.155356         0.123449
 C         2.331799        -0.819886        -0.949615
 O         4.551339        -0.144306         0.628212
 C         4.371202        -0.161984         2.122625
 O         2.815204        -0.292272         2.472336
 C         2.295012        -0.845771         1.159499
 H        -0.484373         0.581947         0.911320
 H        -0.358736         0.635387        -0.956043
 H        -0.644402        -0.907509         0.046463
 H         2.422058         1.474853        -1.004720
 H         2.317358         1.979057         0.757684
 H         2.314243        -0.351609        -1.981033
 H         2.053551        -1.905718        -0.921758
 H         4.844138        -1.156338         2.427115
 H         4.959019         0.610160         2.536555
 H         2.256123        -1.985154         1.249172
