19
Iteration:   778
 C        -0.180024        -0.034488         0.143942
 C         1.333529        -0.048412         0.068004
 C         2.275430         1.186491        -0.086558
 C         3.229425        -0.076630         0.080215
 C         2.361697        -0.739631        -1.052995
 O         4.518587        -0.048608         0.750480
 C         4.327127        -0.518299         2.086970
 O         2.912541        -0.237905         2.496552
 C         2.358921        -0.676435         1.139280
 H        -0.538373         0.681215         0.787602
 H        -0.422921         0.083270        -0.884945
 H        -0.561736        -1.090837         0.293016
 H         2.277041         1.716563        -1.077866
 H         2.485281         1.919080         0.725636
 H         2.248797        -0.202295        -2.037944
 H         2.198848        -1.837170        -1.172289
 H         4.785254        -1.508630         2.165659
 H         4.777130         0.252126         2.655673
 H         2.294692        -1.873081         1.268807
