19
Iteration:   795
 C        -0.156759         0.035537         0.033043
 C         1.357532        -0.097281         0.069117
 C         2.376881         1.121337         0.041413
 C         3.199860        -0.119261         0.134539
 C         2.278597        -0.790170        -0.984753
 O         4.491509         0.044444         0.678506
 C         4.316253        -0.346747         2.078127
 O         2.934395        -0.303975         2.413449
 C         2.332863        -0.788627         1.174729
 H        -0.376100         0.877479         0.826127
 H        -0.644124         0.473183        -0.880140
 H        -0.687016        -0.920968         0.325307
 H         2.400160         1.640024        -0.978522
 H         2.219451         1.825760         0.854583
 H         2.376688        -0.262088        -1.929715
 H         2.374536        -1.878320        -1.063115
 H         4.672773        -1.438208         2.153249
 H         5.033133         0.139134         2.834757
 H         2.267906        -1.816879         1.048155
