19
Iteration:  4119
 C        -0.128362         0.030090        -0.140463
 C         1.305864        -0.136590         0.067097
 C         2.374426         1.093755         0.230882
 C         3.277360        -0.193309         0.164175
 C         2.341701        -0.778753        -0.978968
 O         4.542850        -0.184642         0.674941
 C         4.308144        -0.021426         2.090890
 O         2.846707        -0.320000         2.398172
 C         2.307247        -0.766360         1.128173
 H        -0.579867         0.732500         0.460495
 H        -0.439777         0.293423        -1.117207
 H        -0.789432        -0.857462         0.117479
 H         2.302588         1.940153        -0.439637
 H         2.576102         1.642717         1.150719
 H         2.337796        -0.208359        -2.022383
 H         2.248142        -1.933923        -1.027983
 H         4.990666        -0.731640         2.621568
 H         4.550785         0.984894         2.473420
 H         2.050345        -1.866038         1.087771
