19
Iteration:  3729charge 0 multiplicity 1
 C        -0.093935        -0.004415         0.013821
 C         1.419448        -0.121133         0.079552
 C         2.268581         1.128527         0.010749
 C         3.242862        -0.144983         0.151830
 C         2.403536        -0.799145        -1.017860
 O         4.565568         0.004748         0.756843
 C         4.281936        -0.332363         2.085511
 O         2.787999        -0.199689         2.380845
 C         2.313309        -0.807706         1.141557
 H        -0.505641         0.506530         0.932907
 H        -0.395387         0.767036        -0.709806
 H        -0.751062        -0.836388        -0.235408
 H         2.171991         1.566327        -1.004298
 H         2.470076         1.704116         0.922399
 H         2.151048        -0.360774        -2.017948
 H         2.394863        -1.892956        -0.985032
 H         4.637375        -1.281408         2.487994
 H         4.654830         0.424349         2.755584
 H         2.402390        -1.838940         1.284255
