19
Iteration:  1765charge 0 multiplicity 1
 C         0.001431         0.015785         0.030390
 C         1.378548        -0.006077         0.080835
 C         2.393816         1.075486         0.142713
 C         3.273152        -0.174985         0.077267
 C         2.233812        -0.749502        -0.977033
 O         4.542189        -0.160577         0.661915
 C         4.224710        -0.255000         2.123087
 O         2.829069        -0.168132         2.331742
 C         2.290527        -0.812133         1.161072
 H        -0.253576         0.595712         0.983675
 H        -0.412433         0.316331        -0.924106
 H        -0.435528        -0.894927         0.357979
 H         2.235874         1.609524        -0.777286
 H         2.337328         1.751057         0.932511
 H         2.342861        -0.267826        -1.953849
 H         2.159530        -1.783092        -1.229460
 H         4.675769        -1.264142         2.448195
 H         4.667686         0.674280         2.513523
 H         2.105715        -1.938524         1.302199
