19
Iteration:  1918charge 0 multiplicity 1
 C        -0.150251         0.142042         0.091407
 C         1.327811         0.011433         0.111598
 C         2.345609         1.078418         0.040135
 C         3.319727        -0.192419         0.142461
 C         2.299534        -0.824501        -0.945756
 O         4.588008        -0.194469         0.640317
 C         4.252194        -0.083801         2.143000
 O         2.824543        -0.382010         2.347381
 C         2.363164        -0.808204         1.065107
 H        -0.540828         0.933633         0.803827
 H        -0.455148         0.550464        -0.911687
 H        -0.591061        -0.847213         0.254640
 H         2.320441         1.735685        -0.902218
 H         2.237375         1.742300         0.938848
 H         2.355590        -0.394832        -1.932321
 H         2.255608        -1.935640        -1.013494
 H         4.888563        -0.883629         2.742916
 H         4.540887         0.934933         2.486106
 H         2.211613        -1.837832         1.166692
