19
Iteration:  1766
 C         0.007892         0.025260         0.028206
 C         1.379842        -0.011067         0.078488
 C         2.388613         1.072326         0.142915
 C         3.279212        -0.174816         0.084143
 C         2.235571        -0.745533        -0.972472
 O         4.540421        -0.159018         0.643837
 C         4.225252        -0.250850         2.133926
 O         2.826495        -0.168799         2.343329
 C         2.295481        -0.812801         1.157012
 H        -0.254140         0.568315         0.978554
 H        -0.383370         0.346762        -0.947949
 H        -0.442640        -0.896862         0.381829
 H         2.218365         1.590030        -0.809840
 H         2.331760         1.724169         0.937430
 H         2.315345        -0.265537        -1.953473
 H         2.135532        -1.809553        -1.228018
 H         4.672536        -1.252622         2.457496
 H         4.634283         0.660093         2.501437
 H         2.075388        -1.987171         1.273462
