19
Iteration:   123
 C        -0.038344         0.086236         0.125159
 C         1.378313        -0.136183         0.108784
 C         2.270335         1.160700         0.160326
 C         3.271735        -0.120314         0.042327
 C         2.330207        -0.801306        -1.027111
 O         4.557384        -0.150772         0.671004
 C         4.223382        -0.216546         2.074369
 O         2.797930        -0.277868         2.388533
 C         2.372453        -0.808567         1.071012
 H        -0.174263         0.901240         0.722916
 H        -0.312806         0.356975        -0.979062
 H        -0.705539        -0.795273         0.182792
 H         2.124318         1.808091        -0.740194
 H         2.286280         1.626899         1.250846
 H         2.315691        -0.343622        -2.090563
 H         2.388246        -1.885781        -0.881294
 H         4.687618        -1.005676         2.588396
 H         4.545506         0.796070         2.430561
 H         2.377214        -1.913728         1.117799
