19
Iteration:   886charge 0 multiplicity 1
 C        -0.083292        -0.150174         0.099469
 C         1.384715         0.062239         0.086512
 C         2.550623         1.194775         0.200218
 C         3.240368        -0.108193         0.109123
 C         2.308373        -0.645883        -0.944993
 O         4.452093        -0.435476         0.614296
 C         4.180180         0.042174         1.991406
 O         2.866241        -0.355790         2.388813
 C         2.278150        -0.780827         1.042737
 H        -0.464202         0.154130         1.085719
 H        -0.681504         0.540347        -0.519494
 H        -0.371237        -1.304781        -0.049697
 H         2.470069         1.986052        -0.591356
 H         2.341096         1.622909         1.226673
 H         2.389014        -0.173551        -1.907396
 H         2.221600        -1.675588        -1.004724
 H         4.978222        -0.517107         2.577355
 H         4.326266         1.081034         2.262067
 H         2.301838        -1.775478         1.065960
