19
Iteration:  2148charge 0 multiplicity 1
 C        -0.199249        -0.043492         0.062783
 C         1.399568         0.030284         0.083709
 C         2.326547         1.181459         0.048297
 C         3.274862        -0.205153         0.124420
 C         2.346925        -0.657057        -1.001777
 O         4.519460        -0.425581         0.768569
 C         4.299487        -0.066976         2.051206
 O         2.892157        -0.268830         2.331007
 C         2.321681        -0.772220         1.136243
 H        -0.596103         0.186768         1.016025
 H        -0.733168         0.651752        -0.602294
 H        -0.527658        -1.062110        -0.065369
 H         2.349306         1.783785        -0.933118
 H         2.461924         1.793222         0.949947
 H         2.499844        -0.081472        -1.930709
 H         2.150054        -1.713256        -1.183749
 H         4.964102        -0.599425         2.788130
 H         4.516636         1.022918         2.275978
 H         2.009568        -1.826796         1.247437
