19
Iteration:   936
 C        -0.188458         0.158200         0.134302
 C         1.386722        -0.157900         0.046230
 C         2.335247         1.077489         0.150444
 C         3.178112        -0.137087         0.136354
 C         2.390592        -0.735425        -1.046806
 O         4.521773        -0.135405         0.619440
 C         4.289382        -0.087019         2.099004
 O         2.883834        -0.393072         2.362427
 C         2.385796        -0.898047         1.107044
 H        -0.237801         0.957503         0.920060
 H        -0.577504         0.725822        -0.702592
 H        -0.856141        -0.587913         0.360708
 H         2.516323         1.654486        -0.768510
 H         2.214020         1.686568         1.031578
 H         2.187620        -0.206509        -2.047622
 H         2.201975        -1.876914        -1.158827
 H         4.797242        -0.762795         2.747815
 H         4.387931         0.970445         2.432435
 H         2.466006        -2.100328         1.165609
