19
Iteration:  4675
 C        -0.117721        -0.083765         0.017250
 C         1.400822        -0.042283         0.042600
 C         2.360225         1.196441         0.132232
 C         3.230003        -0.099686         0.189095
 C         2.405538        -0.711491        -0.976285
 O         4.504419        -0.336716         0.676962
 C         4.236903        -0.102228         2.115825
 O         2.851120        -0.303642         2.309616
 C         2.288307        -0.725385         1.131572
 H        -0.634794         0.614705         0.636020
 H        -0.450775         0.214743        -0.998225
 H        -0.404527        -1.070802         0.463466
 H         2.401879         1.909297        -0.680596
 H         2.209578         1.779003         1.095234
 H         2.640713        -0.332533        -1.958946
 H         2.279754        -1.776747        -1.091433
 H         4.813651        -0.770577         2.711518
 H         4.354819         0.992990         2.376310
 H         2.366131        -1.842723         1.046066
