19
Iteration:  3752charge 0 multiplicity 1
 C        -0.183766        -0.062900        -0.000019
 C         1.384615        -0.058573        -0.028700
 C         2.314808         1.173139         0.041050
 C         3.250867        -0.144067         0.225347
 C         2.459056        -0.796649        -0.969223
 O         4.504356        -0.091732         0.661621
 C         4.234587        -0.291560         2.152755
 O         2.878263        -0.212714         2.393621
 C         2.329584        -0.752146         1.111119
 H        -0.481653         0.614344         0.899714
 H        -0.797597         0.353033        -0.848545
 H        -0.639239        -1.019421         0.194505
 H         2.490314         1.798099        -0.859431
 H         2.263489         1.596671         1.063308
 H         2.591407        -0.185773        -1.902794
 H         2.281317        -1.870833        -1.211114
 H         4.599927        -1.236560         2.518006
 H         4.723417         0.453969         2.778315
 H         2.285925        -1.776521         1.306968
