19
Iteration:   476
 C        -0.125170        -0.030841         0.045437
 C         1.384828        -0.012758         0.127959
 C         2.292515         1.165157         0.095123
 C         3.260930        -0.090679         0.126426
 C         2.303636        -0.717918        -0.979204
 O         4.588543        -0.229343         0.662173
 C         4.319446        -0.254147         2.083378
 O         2.836577        -0.223095         2.341145
 C         2.334274        -0.778813         1.155426
 H        -0.598608         0.643114         0.729278
 H        -0.451033         0.169058        -1.015878
 H        -0.490530        -1.010819         0.112525
 H         2.285367         1.681033        -0.919714
 H         2.212307         1.891906         0.936196
 H         1.958479        -0.610375        -1.981586
 H         2.182868        -1.856329        -0.807424
 H         4.849253        -1.099870         2.532178
 H         4.652670         0.675805         2.597708
 H         2.271766        -1.942623         1.123509
