19
Iteration:   848
 C        -0.163414        -0.029283         0.015637
 C         1.368079        -0.089348         0.086833
 C         2.295732         1.137693         0.112623
 C         3.215487        -0.174629         0.168075
 C         2.322417        -0.574788        -0.980960
 O         4.544833        -0.315254         0.631262
 C         4.354292        -0.125479         2.085958
 O         2.914327        -0.242365         2.389395
 C         2.302273        -0.834408         1.175704
 H        -0.548625         0.295067         1.025335
 H        -0.448829         0.625229        -0.825680
 H        -0.583373        -0.942796        -0.244878
 H         2.379901         1.797102        -0.723143
 H         2.192918         1.713303         1.011633
 H         2.299899         0.050473        -1.895813
 H         2.109564        -1.693083        -1.248882
 H         4.835897        -0.924604         2.616307
 H         4.718546         0.914168         2.203909
 H         2.277099        -1.978972         1.001657
