19
Iteration:   605charge 0 multiplicity 1
 C        -0.149790         0.015457         0.125964
 C         1.423951        -0.036084         0.107030
 C         2.417283         1.133676         0.218300
 C         3.230185        -0.148059         0.118144
 C         2.402507        -0.715856        -1.002521
 O         4.517084        -0.335361         0.634592
 C         4.185902         0.038872         1.977210
 O         2.792487        -0.346890         2.312651
 C         2.342934        -0.838525         1.144646
 H        -0.481242         0.720107         0.924255
 H        -0.581537         0.447867        -0.920574
 H        -0.462464        -1.044825         0.397027
 H         2.546684         1.760442        -0.665139
 H         2.446822         1.664992         1.147762
 H         2.462230        -0.235880        -1.997168
 H         2.128541        -1.772076        -0.874721
 H         4.935107        -0.601106         2.604668
 H         4.401394         1.113818         2.187685
 H         2.327921        -1.884066         0.985244
