19
Iteration:   799charge 0 multiplicity 1
 C        -0.145464         0.070747         0.042052
 C         1.345946        -0.083823         0.057347
 C         2.362366         1.090251         0.095647
 C         3.195063        -0.117960         0.155067
 C         2.275863        -0.811193        -0.954202
 O         4.524367         0.054414         0.661605
 C         4.299021        -0.350537         2.059328
 O         2.923460        -0.306004         2.373750
 C         2.347129        -0.781509         1.177643
 H        -0.368403         0.801578         0.789504
 H        -0.511643         0.415488        -0.913651
 H        -0.675154        -0.945351         0.249584
 H         2.464813         1.574588        -0.945435
 H         2.142055         1.857454         0.862712
 H         2.425599        -0.293956        -1.921948
 H         2.373632        -1.866337        -1.032814
 H         4.747050        -1.394833         2.050114
 H         4.821901         0.258392         2.823068
 H         2.171074        -1.908109         1.095288
