19
Iteration:  1974
 C        -0.218706        -0.030503         0.071931
 C         1.284263        -0.040499         0.123944
 C         2.371834         1.176987         0.104822
 C         3.265139        -0.145649         0.117872
 C         2.468111        -0.798640        -1.013512
 O         4.628666        -0.229310         0.613567
 C         4.257053        -0.287940         2.095109
 O         2.843520        -0.135304         2.334227
 C         2.248381        -0.716890         1.180796
 H        -0.375014         0.336635         1.090779
 H        -0.526400         0.681805        -0.749249
 H        -0.714680        -1.027386        -0.070382
 H         2.267468         1.871371        -0.787953
 H         2.341526         1.770783         1.004735
 H         2.448312        -0.432892        -2.032983
 H         2.428874        -1.922249        -0.937368
 H         4.431219        -1.381337         2.326115
 H         4.795524         0.474209         2.691563
 H         2.153316        -1.756801         1.338134
