19
Iteration:   649charge 0 multiplicity 1
 C        -0.176049         0.139092         0.034494
 C         1.295141        -0.072716         0.067112
 C         2.459365         1.059713         0.137503
 C         3.256475        -0.240416         0.127963
 C         2.263584        -0.711091        -1.017379
 O         4.508405        -0.213646         0.690095
 C         4.237602         0.116493         2.014121
 O         2.926410        -0.484172         2.407688
 C         2.361038        -0.912806         1.183534
 H        -0.447553         0.648323         0.994627
 H        -0.466051         0.924647        -0.805067
 H        -0.703874        -0.831161         0.091081
 H         2.430821         1.561421        -0.798474
 H         2.464986         1.746876         0.983984
 H         2.469503        -0.071663        -1.908454
 H         2.376682        -1.785680        -1.337681
 H         5.137286        -0.206176         2.700986
 H         4.120868         1.223520         2.014098
 H         2.209453        -1.945164         1.149592
