19
Iteration:  2388charge 0 multiplicity 1
 C        -0.152474        -0.033303         0.007770
 C         1.349089        -0.027702         0.059651
 C         2.337554         1.157829         0.192687
 C         3.225283        -0.209958         0.124585
 C         2.329994        -0.796178        -1.003967
 O         4.558697        -0.192144         0.679101
 C         4.328041        -0.209592         2.136696
 O         2.868940        -0.121756         2.356930
 C         2.303840        -0.822480         1.089873
 H        -0.436687         0.807081         0.714180
 H        -0.581899         0.239617        -1.037411
 H        -0.588400        -1.087680         0.184029
 H         2.401276         1.817349        -0.655411
 H         2.421980         1.843190         1.010939
 H         2.391250        -0.333323        -2.035776
 H         2.188779        -1.879256        -1.068401
 H         4.804461        -1.197426         2.499628
 H         4.723589         0.710481         2.588857
 H         2.093710        -1.940160         1.149926
