19
Iteration:   709charge 0 multiplicity 1
 C        -0.181091        -0.103350         0.030887
 C         1.367037        -0.067765         0.076378
 C         2.351562         1.144669         0.141546
 C         3.228332        -0.165721         0.178258
 C         2.245199        -0.628381        -1.001334
 O         4.570002        -0.221281         0.647423
 C         4.322068        -0.293828         2.096612
 O         2.922213        -0.146942         2.344615
 C         2.305326        -0.751594         1.161360
 H        -0.588552         0.327480         1.005714
 H        -0.491816         0.470773        -0.832728
 H        -0.668966        -1.126739        -0.224709
 H         2.436411         1.446323        -0.998278
 H         2.171771         1.997414         0.845273
 H         2.608810        -0.042825        -1.853471
 H         2.236020        -1.643827        -1.220828
 H         4.674071        -1.256726         2.507922
 H         4.791035         0.654226         2.510306
 H         2.211973        -1.882577         1.399143
