19
Iteration:  3410charge 0 multiplicity 1
 C        -0.090284        -0.071578         0.066393
 C         1.361422        -0.066578         0.047176
 C         2.326746         1.084190         0.032522
 C         3.240196        -0.087835         0.136473
 C         2.433411        -0.672709        -0.980478
 O         4.552641        -0.116171         0.664518
 C         4.220120        -0.355114         2.173530
 O         2.824876        -0.177157         2.354458
 C         2.268388        -0.743330         1.154641
 H        -0.605491         0.692458         0.713656
 H        -0.522290        -0.036468        -0.933570
 H        -0.497729        -0.965337         0.460261
 H         2.302565         1.537497        -0.981863
 H         2.273500         1.798281         0.882227
 H         2.568557        -0.155812        -1.911404
 H         2.321929        -1.811576        -1.090291
 H         4.761227        -1.292193         2.215403
 H         4.828515         0.481467         2.716869
 H         2.322014        -1.933738         1.276391
