19
Iteration:  2390
 C        -0.146804        -0.026256         0.017286
 C         1.352496        -0.026872         0.038540
 C         2.336811         1.160213         0.196089
 C         3.224815        -0.212952         0.146901
 C         2.322217        -0.789668        -1.016080
 O         4.565522        -0.196875         0.672256
 C         4.326470        -0.226760         2.113443
 O         2.864263        -0.109673         2.373145
 C         2.301732        -0.825357         1.086784
 H        -0.446118         0.747427         0.690369
 H        -0.580819         0.215975        -1.009209
 H        -0.547451        -1.096899         0.205288
 H         2.303142         1.787299        -0.686707
 H         2.449877         1.849984         1.051583
 H         2.446756        -0.368348        -2.005911
 H         2.251350        -1.862907        -1.056875
 H         4.807038        -1.163077         2.544745
 H         4.636951         0.735665         2.609678
 H         2.106026        -1.907246         1.148828
