19
Iteration:  3217
 C        -0.058882        -0.021635         0.033586
 C         1.351336        -0.051225         0.065133
 C         2.423526         1.116285         0.127695
 C         3.251823        -0.229772         0.140229
 C         2.337464        -0.642797        -1.021476
 O         4.595611        -0.244916         0.694705
 C         4.230252         0.017146         2.099000
 O         2.793188        -0.312474         2.364806
 C         2.277405        -0.900028         1.192462
 H        -0.731233         0.582092         0.714092
 H        -0.535479         0.355415        -0.915631
 H        -0.384081        -1.063372         0.088201
 H         2.389084         1.735303        -0.793536
 H         2.286875         1.648151         1.100374
 H         2.372068        -0.078280        -1.993215
 H         2.198373        -1.695084        -1.426476
 H         4.913836        -0.492221         2.749004
 H         4.335610         1.093987         2.131565
 H         2.098012        -1.974162         0.973974
