19
Iteration:  1001charge 0 multiplicity 1
 C        -0.131669        -0.183565        -0.027808
 C         1.315553         0.035764         0.093738
 C         2.305028         1.188706         0.140300
 C         3.237486        -0.123506         0.144852
 C         2.298492        -0.603845        -0.988383
 O         4.551460        -0.281666         0.618382
 C         4.386751        -0.342217         2.077523
 O         2.902305        -0.190908         2.375339
 C         2.291495        -0.687196         1.215038
 H        -0.521847         0.239395         0.964672
 H        -0.635884         0.444922        -0.799984
 H        -0.368224        -1.193224        -0.026051
 H         2.362382         1.881493        -0.742186
 H         2.244513         1.828554         1.017969
 H         2.217529        -0.063329        -2.026497
 H         1.933610        -1.714764        -1.203191
 H         4.810389        -1.274914         2.460317
 H         4.969067         0.516215         2.522781
 H         2.208557        -1.853153         1.282791
