19
Iteration:   895
 C        -0.067783        -0.068760         0.120784
 C         1.399861        -0.027559         0.059969
 C         2.455781         1.225656         0.248811
 C         3.258265        -0.155432         0.128140
 C         2.241627        -0.646276        -0.982941
 O         4.490406        -0.376436         0.635473
 C         4.232221         0.032784         2.028620
 O         2.802680        -0.387746         2.340131
 C         2.326209        -0.796300         1.079415
 H        -0.284181         0.303277         1.169368
 H        -0.664084         0.408823        -0.636595
 H        -0.395006        -1.193514        -0.012153
 H         2.593037         1.788054        -0.742068
 H         2.713736         1.911038         1.023305
 H         2.347603        -0.186611        -1.997352
 H         2.298187        -1.683998        -1.070157
 H         5.021860        -0.511757         2.596554
 H         4.201371         1.150978         1.984050
 H         2.233549        -1.882460         1.095118
