19
Iteration:   652charge 0 multiplicity 1
 C        -0.180087         0.136432         0.038862
 C         1.320368        -0.073093         0.056130
 C         2.447359         1.053444         0.135016
 C         3.229046        -0.224744         0.122050
 C         2.285234        -0.725960        -0.983893
 O         4.512153        -0.198774         0.677141
 C         4.251987         0.102264         2.021577
 O         2.925527        -0.485916         2.389490
 C         2.327645        -0.918610         1.182237
 H        -0.425370         0.700633         1.042713
 H        -0.439225         0.890822        -0.792688
 H        -0.680893        -0.808446        -0.041103
 H         2.551420         1.642520        -0.808865
 H         2.449080         1.807881         1.001686
 H         2.366472        -0.098058        -1.770334
 H         2.377505        -1.784175        -1.209602
 H         5.118008        -0.166432         2.686667
 H         4.220672         1.219104         2.074137
 H         2.194907        -2.007255         1.103065
