19
Iteration:  1233charge 0 multiplicity 1
 C        -0.096050         0.198367         0.081502
 C         1.399106        -0.150381         0.052671
 C         2.380722         1.071182         0.243449
 C         3.229032        -0.186539         0.137899
 C         2.274525        -0.747217        -0.991070
 O         4.551687        -0.116610         0.599058
 C         4.312088        -0.002194         2.025369
 O         2.743727        -0.452532         2.349434
 C         2.362845        -0.912354         1.086774
 H        -0.326746         0.736050         1.103074
 H        -0.316015         0.875625        -0.759717
 H        -0.844368        -0.697097         0.149502
 H         2.449168         1.798398        -0.544637
 H         2.571127         1.531982         1.247574
 H         2.266845        -0.204198        -2.007973
 H         2.505077        -1.855222        -0.998783
 H         4.753671        -0.800087         2.639662
 H         4.374823         1.057025         2.401862
 H         2.403829        -1.940204         1.160429
