19
Iteration:  3360
 C        -0.104497        -0.162764        -0.013347
 C         1.395225        -0.042078         0.103461
 C         2.347030         1.262691         0.033709
 C         3.236411        -0.103420         0.168282
 C         2.364305        -0.751011        -0.984550
 O         4.558384        -0.162183         0.661253
 C         4.225956        -0.352125         2.163611
 O         2.849070        -0.126112         2.372969
 C         2.312738        -0.756283         1.150088
 H        -0.628642         0.207508         0.946621
 H        -0.660121         0.495261        -0.735068
 H        -0.457176        -1.246064        -0.304179
 H         2.451149         1.669730        -0.973541
 H         2.166233         1.905821         0.902054
 H         2.264107        -0.221281        -1.973536
 H         2.370707        -1.828429        -1.016575
 H         4.613417        -1.370407         2.276934
 H         4.909603         0.304762         2.703208
 H         2.043724        -1.777128         1.387038
