19
Iteration:  4943
 C        -0.107433        -0.115689        -0.044561
 C         1.385465        -0.034218         0.043260
 C         2.302273         1.182073         0.130281
 C         3.230266        -0.156655         0.151391
 C         2.382850        -0.735152        -0.934338
 O         4.558319        -0.235082         0.627243
 C         4.242815        -0.325246         2.095793
 O         2.814645        -0.102978         2.384986
 C         2.330805        -0.665335         1.146697
 H        -0.631912         0.157809         1.034350
 H        -0.507613         0.492001        -0.882721
 H        -0.300926        -1.141922        -0.384402
 H         2.259807         1.770819        -0.808945
 H         2.422105         1.776691         1.082504
 H         2.461902        -0.166330        -1.785109
 H         2.364078        -1.820534        -0.924731
 H         4.362457        -1.375076         2.380020
 H         4.850003         0.342681         2.880374
 H         2.461286        -1.759037         1.360752
