19
Iteration:  4493
 C        -0.146513        -0.065353        -0.053542
 C         1.369521         0.009814        -0.010113
 C         2.305483         1.171589         0.037243
 C         3.240968        -0.151542         0.167031
 C         2.372102        -0.709742        -0.942581
 O         4.482118        -0.280425         0.666531
 C         4.298294        -0.141988         2.202828
 O         2.871672        -0.281123         2.432291
 C         2.366271        -0.789137         1.110541
 H        -0.594272         0.786435         0.623529
 H        -0.585595         0.116635        -1.034670
 H        -0.473665        -1.093028         0.358320
 H         2.468877         1.935247        -0.703702
 H         2.159976         1.835024         0.941695
 H         2.359695        -0.122137        -1.904852
 H         2.289965        -1.724807        -1.090678
 H         4.878476        -0.951161         2.755839
 H         4.654636         0.914160         2.382778
 H         2.421691        -1.943541         1.168231
