19
Iteration:  2525charge 0 multiplicity 1
 C        -0.121116        -0.033038        -0.017229
 C         1.421842        -0.024133         0.044987
 C         2.398813         1.180813         0.106175
 C         3.176127        -0.188591         0.138368
 C         2.294486        -0.769871        -0.961278
 O         4.499450        -0.194461         0.703297
 C         4.346787        -0.180357         2.091853
 O         2.884121        -0.249314         2.389221
 C         2.283458        -0.794623         1.117119
 H        -0.640003         0.447735         0.860743
 H        -0.508008         0.434103        -0.890575
 H        -0.557363        -1.032032        -0.068249
 H         2.204032         1.816796        -0.795612
 H         2.276789         1.700601         1.043288
 H         2.576506        -0.179213        -1.791796
 H         2.109617        -1.810852        -1.104140
 H         4.772943        -0.917761         2.734927
 H         4.704204         0.864640         2.378300
 H         2.236586        -1.850530         1.127324
