19
Iteration:  4736charge 0 multiplicity 1
 C        -0.113598         0.128109         0.047364
 C         1.382304        -0.134787         0.076861
 C         2.403108         1.128071         0.177426
 C         3.237218        -0.141729         0.115029
 C         2.393795        -0.808962        -1.057813
 O         4.587842        -0.198268         0.679437
 C         4.251552         0.066401         2.079966
 O         2.751858        -0.422056         2.384372
 C         2.282351        -0.877245         1.135801
 H        -0.486715         0.660354         0.942839
 H        -0.355889         0.694545        -0.921869
 H        -0.622194        -0.803657        -0.021309
 H         2.315224         1.767913        -0.778247
 H         2.193240         1.602893         1.104392
 H         2.438040        -0.347976        -2.083499
 H         2.386764        -1.976980        -1.052442
 H         5.044102        -0.476225         2.748670
 H         4.222759         1.113330         2.245685
 H         2.303432        -1.979945         1.114605
