19
Iteration:  3474
 C        -0.112603        -0.026836        -0.036228
 C         1.376650        -0.108058         0.150098
 C         2.404105         1.114513         0.111386
 C         3.167395        -0.112706         0.134015
 C         2.358843        -0.714156        -1.110944
 O         4.521124        -0.189612         0.673707
 C         4.304805        -0.101603         2.084618
 O         2.834311        -0.269091         2.445021
 C         2.298749        -0.833495         1.183017
 H        -0.531854         0.599954         0.774069
 H        -0.294334         0.531647        -0.959687
 H        -0.490490        -1.069998        -0.185680
 H         2.378176         1.634497        -0.860948
 H         2.413490         1.718876         1.048196
 H         2.429859        -0.258175        -2.088847
 H         2.246113        -1.868682        -1.064631
 H         4.868569        -0.822558         2.650203
 H         4.421741         0.824157         2.611364
 H         2.209900        -1.906500         1.202178
