19
Iteration:  3192charge 0 multiplicity 1
 C        -0.159008         0.044468        -0.018342
 C         1.337388        -0.115865         0.026867
 C         2.356179         1.089643         0.164722
 C         3.294194        -0.163020         0.126562
 C         2.391675        -0.772655        -1.015872
 O         4.494485        -0.203651         0.724083
 C         4.245908        -0.017376         2.107193
 O         2.883890        -0.340624         2.379535
 C         2.354856        -0.802562         1.135355
 H        -0.675768         0.507690         0.903205
 H        -0.518455         0.760891        -0.814655
 H        -0.710712        -0.883003        -0.216628
 H         2.444532         1.834396        -0.608423
 H         2.232147         1.621190         1.080692
 H         2.257866        -0.337685        -1.943979
 H         2.327708        -1.847487        -1.133299
 H         4.949449        -0.671205         2.599138
 H         4.455164         1.059778         2.330503
 H         2.248070        -1.838928         1.044119
