19
Iteration:  2916
 C        -0.079727         0.021120         0.008293
 C         1.366265        -0.115002         0.112864
 C         2.261705         1.226912         0.134109
 C         3.260703        -0.188511         0.157032
 C         2.422943        -0.747739        -1.040059
 O         4.514979        -0.189381         0.707215
 C         4.239622        -0.138829         2.119665
 O         2.848436        -0.250899         2.361106
 C         2.304807        -0.883040         1.109169
 H        -0.339295         0.790281         0.790118
 H        -0.252547         0.291403        -0.967202
 H        -0.607019        -0.924410         0.312675
 H         2.224291         1.764307        -0.789756
 H         2.180483         1.949894         0.858888
 H         2.672101        -0.283741        -2.059110
 H         2.185264        -1.775578        -1.105214
 H         4.790711        -1.042678         2.442643
 H         4.570340         0.753963         2.618469
 H         2.357867        -1.923273         0.810640
