19
Iteration:  1606
 C        -0.133912        -0.029430         0.091798
 C         1.365789        -0.019985         0.112915
 C         2.534125         1.180101         0.111695
 C         3.246835        -0.244575         0.145528
 C         2.294645        -0.710374        -1.051621
 O         4.497963        -0.305719         0.705999
 C         4.267190        -0.032321         2.041120
 O         2.826158        -0.302296         2.368204
 C         2.287380        -0.782252         1.105872
 H        -0.531540         0.479791         0.915961
 H        -0.470608         0.446029        -0.844396
 H        -0.544489        -1.066328         0.277362
 H         2.646696         1.853080        -0.843760
 H         2.387288         1.711537         1.036710
 H         2.397625        -0.137384        -1.979605
 H         2.154553        -1.811663        -1.298821
 H         4.973205        -0.686308         2.620439
 H         4.318788         1.074672         2.188028
 H         2.052783        -1.820119         1.268378
