19
Iteration:  2651charge 0 multiplicity 1
 C        -0.214747         0.014052        -0.022566
 C         1.381709        -0.122334         0.060289
 C         2.397867         1.178252         0.060497
 C         3.282557        -0.091393         0.139212
 C         2.287955        -0.779413        -1.026052
 O         4.564626        -0.203184         0.700209
 C         4.264296        -0.193767         2.160350
 O         2.874831        -0.273112         2.422230
 C         2.313483        -0.785459         1.121746
 H        -0.602656         0.322115         0.903268
 H        -0.696178         0.774397        -0.677076
 H        -0.628444        -0.952578        -0.238770
 H         2.465683         1.717579        -0.909624
 H         2.291271         1.844455         0.959637
 H         2.268860        -0.294212        -2.021278
 H         2.534761        -1.896069        -1.216591
 H         4.939563        -0.871922         2.791743
 H         4.409349         0.901535         2.536435
 H         2.346001        -1.909957         1.207540
