19
Iteration:   776
 C        -0.170321        -0.049025         0.150987
 C         1.333401        -0.033470         0.071249
 C         2.268910         1.180493        -0.071669
 C         3.230080        -0.070103         0.079732
 C         2.357247        -0.748018        -1.052050
 O         4.535336        -0.061847         0.745001
 C         4.306958        -0.527714         2.081658
 O         2.909829        -0.231403         2.483600
 C         2.361516        -0.660296         1.142050
 H        -0.601065         0.729550         0.802562
 H        -0.426406         0.076801        -0.872232
 H        -0.534820        -1.171075         0.298050
 H         2.283186         1.698112        -1.157848
 H         2.397663         1.964941         0.702813
 H         2.308027        -0.191487        -2.020152
 H         2.246573        -1.765839        -1.157876
 H         4.835384        -1.529446         2.176602
 H         4.782567         0.236746         2.757870
 H         2.248348        -1.792418         1.210871
