19
Iteration:  1698charge 0 multiplicity 1
 C        -0.148292        -0.060005         0.004957
 C         1.413390        -0.034444         0.106060
 C         2.389710         1.186139         0.046497
 C         3.202711        -0.105868         0.128763
 C         2.274716        -0.808206        -0.974331
 O         4.494697        -0.122815         0.727740
 C         4.405499        -0.482384         2.081672
 O         2.837467        -0.086120         2.364020
 C         2.293089        -0.665749         1.137480
 H        -0.653835         0.350546         0.926716
 H        -0.493078         0.382427        -0.918927
 H        -0.460923        -1.056267         0.091661
 H         2.390420         1.617748        -0.888848
 H         2.393983         1.842816         0.934971
 H         2.413711        -0.449578        -2.003382
 H         2.328104        -1.852201        -0.922965
 H         4.461078        -1.574356         2.310793
 H         5.010010         0.222328         2.719780
 H         2.239310        -1.822574         1.124157
