19
Iteration:  4547
 C        -0.082518        -0.109519         0.025264
 C         1.406897        -0.081798         0.026120
 C         2.383464         1.160762         0.126766
 C         3.258423        -0.037246         0.140228
 C         2.343801        -0.768679        -0.969083
 O         4.572368        -0.123114         0.691884
 C         4.201615        -0.370305         2.106859
 O         2.800944        -0.119451         2.308911
 C         2.295545        -0.746851         1.153461
 H        -0.306640         0.619300         0.835658
 H        -0.420925         0.183577        -0.916576
 H        -0.533413        -1.123572         0.115440
 H         2.317423         1.672201        -0.878214
 H         2.257523         1.811660         1.077189
 H         2.252985        -0.407513        -2.059206
 H         2.203283        -1.808666        -0.879102
 H         4.301414        -1.411649         2.515253
 H         4.748179         0.303051         2.823579
 H         2.436956        -1.844829         1.248232
