19
Iteration:  3687
 C        -0.167360        -0.083151        -0.041680
 C         1.355588        -0.072431         0.042856
 C         2.329769         1.207717         0.068336
 C         3.252666        -0.169730         0.108151
 C         2.398037        -0.813189        -1.014735
 O         4.577708        -0.108223         0.753206
 C         4.317394        -0.247299         2.124873
 O         2.812651        -0.196386         2.378989
 C         2.306623        -0.769279         1.175457
 H        -0.444462         0.196988         1.098352
 H        -0.702362         0.823736        -0.665673
 H        -0.580288        -1.081304        -0.294812
 H         2.371326         1.866259        -0.833170
 H         2.284910         1.723917         1.051850
 H         2.489482        -0.184332        -1.945488
 H         2.196386        -1.909081        -1.064886
 H         4.611278        -1.260985         2.413582
 H         4.839592         0.577060         2.595785
 H         2.093231        -1.848614         1.184928
