19
Iteration:  4155
 C        -0.157150         0.074342        -0.083762
 C         1.408717        -0.098487         0.075874
 C         2.335196         1.153315         0.103666
 C         3.246981        -0.200346         0.147888
 C         2.370643        -0.719942        -0.980281
 O         4.505068        -0.271761         0.702673
 C         4.246655         0.130209         2.044061
 O         2.881995        -0.488454         2.512550
 C         2.311212        -0.841941         1.135850
 H        -0.349546         0.915436         0.668931
 H        -0.336171         0.405568        -1.095106
 H        -0.654754        -0.873564         0.146712
 H         2.295714         1.646821        -0.857042
 H         2.438812         1.646669         1.038462
 H         2.478498        -0.094203        -2.048499
 H         2.328186        -1.805451        -1.293494
 H         5.096692        -0.264642         2.617939
 H         4.020116         1.157799         2.145254
 H         2.256861        -1.895650         1.137261
