19
Iteration:  1588
 C        -0.036623        -0.026236         0.118906
 C         1.395104         0.057579         0.065979
 C         2.459320         1.097789         0.152683
 C         3.230078        -0.205337         0.074232
 C         2.300253        -0.670240        -1.016472
 O         4.541058        -0.420996         0.636791
 C         4.144429         0.099694         2.136843
 O         2.858413        -0.333830         2.319408
 C         2.257320        -0.802305         1.129595
 H        -0.463566         0.594877         0.968609
 H        -0.648391         0.443524        -0.670154
 H        -0.251660        -1.081317         0.363550
 H         2.577365         1.650218        -0.707604
 H         2.691204         1.683651         1.062611
 H         2.375851        -0.147141        -1.951707
 H         2.146624        -1.738270        -0.971933
 H         4.752992        -0.516460         2.797305
 H         4.211867         1.241890         2.129665
 H         2.132623        -2.018733         0.948365
