19
Iteration:   414charge 0 multiplicity 1
 C        -0.110508         0.060369         0.135899
 C         1.430263        -0.071753         0.084903
 C         2.409640         1.102760         0.127107
 C         3.288582        -0.226588         0.108966
 C         2.330151        -0.713770        -1.026090
 O         4.485610        -0.371285         0.729432
 C         4.155933         0.170909         2.019007
 O         2.871168        -0.420122         2.335261
 C         2.359591        -0.811422         1.090218
 H        -0.538058         0.596571         1.113340
 H        -0.334472         0.712126        -0.611200
 H        -0.693617        -0.853735         0.167987
 H         2.485803         1.750743        -0.703035
 H         2.349024         1.618581         1.129076
 H         2.213370        -0.122130        -1.933159
 H         2.051347        -1.740944        -1.108274
 H         4.884551        -0.187773         2.701682
 H         4.045483         1.247433         1.935735
 H         2.383449        -1.846094         1.005255
