19
Iteration:  3981charge 0 multiplicity 1
 C        -0.142669        -0.018890        -0.116085
 C         1.381981        -0.035182         0.120338
 C         2.273918         1.138996         0.075107
 C         3.225312        -0.101304         0.168327
 C         2.369068        -0.795592        -0.980177
 O         4.533915        -0.116538         0.729259
 C         4.366783        -0.254574         2.067166
 O         2.804233        -0.289380         2.404113
 C         2.330612        -0.754155         1.129639
 H        -0.536031         0.768743         0.673095
 H        -0.376104         0.170086        -1.118572
 H        -0.607163        -0.953285         0.193566
 H         2.190326         1.767866        -0.846393
 H         2.282925         1.847481         0.924784
 H         2.403058        -0.404902        -1.976518
 H         2.357881        -1.812606        -0.805535
 H         5.000476        -1.103858         2.572180
 H         4.734030         0.606934         2.679538
 H         2.392042        -1.884007         1.213076
