19
Iteration:  4975charge 0 multiplicity 1
 C        -0.107613        -0.032911        -0.066857
 C         1.340273        -0.063043         0.071555
 C         2.407100         1.158564         0.124142
 C         3.226003        -0.217291         0.150981
 C         2.326864        -0.743362        -0.964643
 O         4.520781        -0.170046         0.719092
 C         4.284772        -0.172632         2.125956
 O         2.861992        -0.221239         2.313644
 C         2.291116        -0.756713         1.167468
 H        -0.626041         0.048347         0.955509
 H        -0.420534         0.633594        -0.854112
 H        -0.536984        -1.032706        -0.274140
 H         2.368111         1.681294        -0.813350
 H         2.550765         1.748542         1.005391
 H         2.376418        -0.252535        -1.897566
 H         2.262387        -1.734021        -1.132329
 H         4.675212        -1.129033         2.473591
 H         4.739232         0.774166         2.692429
 H         2.179320        -1.887791         1.231876
