19
Iteration:  2411
 C        -0.092093        -0.080971         0.091088
 C         1.386865        -0.078720         0.048052
 C         2.338911         1.133936         0.072136
 C         3.229163        -0.115914         0.119226
 C         2.440844        -0.700373        -0.989341
 O         4.521117        -0.310373         0.613909
 C         4.254827        -0.190961         2.089953
 O         2.804257        -0.178663         2.390354
 C         2.283570        -0.690097         1.210297
 H        -0.345723         0.701301         0.830645
 H        -0.629672         0.170944        -0.913151
 H        -0.486076        -1.167930         0.294832
 H         2.576097         1.813068        -0.693057
 H         2.155992         1.800130         0.927177
 H         2.391862        -0.097331        -1.912112
 H         2.360414        -1.749617        -1.211531
 H         4.621550        -1.196872         2.428114
 H         4.777278         0.716453         2.479669
 H         2.180610        -1.831342         1.217743
