19
Iteration:  2311
 C        -0.227078        -0.015154         0.030523
 C         1.362845        -0.081150         0.104366
 C         2.406209         1.177356         0.059483
 C         3.238509        -0.212301         0.162936
 C         2.375148        -0.697114        -1.020909
 O         4.562236        -0.281740         0.615021
 C         4.283248        -0.147981         2.162378
 O         2.833029        -0.178880         2.407157
 C         2.342627        -0.792346         1.142324
 H        -0.781543         0.299404         1.008592
 H        -0.551032         0.665845        -0.846305
 H        -0.602237        -1.059740        -0.154645
 H         2.469084         1.853000        -0.780520
 H         2.329625         1.763701         0.960498
 H         2.248933        -0.355327        -2.075186
 H         2.285307        -1.764063        -0.928422
 H         4.921157        -1.066021         2.484601
 H         4.689045         0.823865         2.458348
 H         2.206430        -1.909686         1.040677
