19
Iteration:  3004
 C        -0.237844         0.013451        -0.092429
 C         1.338030        -0.086154         0.035584
 C         2.294046         1.092105         0.115549
 C         3.211749        -0.131892         0.181993
 C         2.435974        -0.766924        -0.984042
 O         4.510891        -0.149848         0.695088
 C         4.323833        -0.333774         2.139939
 O         2.867657        -0.152474         2.367664
 C         2.402300        -0.701724         1.164900
 H        -0.534560         0.328389         1.020400
 H        -0.807329         0.686879        -0.798927
 H        -0.564561        -1.140543        -0.200041
 H         2.394460         1.629294        -0.795283
 H         2.174207         1.635309         1.022615
 H         2.536188        -0.257348        -2.011675
 H         2.421258        -1.799370        -1.162394
 H         4.690972        -1.311758         2.426516
 H         4.741140         0.481644         2.720113
 H         2.588293        -1.771823         1.250860
