19
Iteration:  2315charge 0 multiplicity 1
 C        -0.254876        -0.012612         0.008431
 C         1.356914        -0.084388         0.090822
 C         2.404533         1.157602         0.071534
 C         3.254828        -0.160422         0.166471
 C         2.388948        -0.726391        -0.995841
 O         4.535444        -0.273806         0.613722
 C         4.314047        -0.144412         2.146779
 O         2.855653        -0.196105         2.445527
 C         2.307146        -0.796323         1.088856
 H        -0.576896         0.319546         0.922281
 H        -0.639213         0.668496        -0.729479
 H        -0.684670        -1.028718        -0.137018
 H         2.553527         1.838352        -0.849699
 H         2.412283         1.872231         1.005366
 H         2.286058        -0.404879        -2.020192
 H         2.268856        -1.822407        -0.935255
 H         4.760930        -1.077756         2.499559
 H         4.740783         0.883764         2.513096
 H         2.278054        -1.870925         1.073737
