19
Iteration:  1157charge 0 multiplicity 1
 C        -0.149894        -0.183484         0.011486
 C         1.368014         0.083285         0.229631
 C         2.454153         1.316813         0.236309
 C         3.266175        -0.195103         0.101891
 C         2.316177        -0.638163        -0.988655
 O         4.521895        -0.365431         0.604308
 C         4.244766        -0.185098         2.031398
 O         2.873296        -0.264748         2.338995
 C         2.288946        -0.736671         1.085911
 H        -0.817620         0.145854         0.853567
 H        -0.510172         0.221200        -0.916222
 H        -0.274411        -1.322483        -0.075782
 H         2.570065         1.927122        -0.607662
 H         2.445783         1.802169         1.243999
 H         2.136137         0.036638        -1.938690
 H         2.055625        -1.754005        -1.208800
 H         4.950775        -0.892088         2.498800
 H         4.468792         0.796769         2.492771
 H         2.109603        -1.762628         1.280859
