19
Iteration:  2443
 C        -0.170493        -0.067835         0.077056
 C         1.354053         0.009859         0.068315
 C         2.373349         1.124801         0.040594
 C         3.275965        -0.129594         0.078738
 C         2.317893        -0.741915        -0.969545
 O         4.608137        -0.234193         0.704706
 C         4.277007        -0.170407         2.113635
 O         2.799345        -0.250647         2.341412
 C         2.376651        -0.707031         1.149902
 H        -0.594503         0.378859         1.006288
 H        -0.636366         0.436786        -0.866003
 H        -0.375676        -1.225616         0.140049
 H         2.571382         1.667239        -0.856418
 H         2.256188         1.699338         0.958433
 H         2.253542        -0.281077        -2.005118
 H         2.066359        -1.806891        -1.047721
 H         4.604859        -1.088597         2.669883
 H         4.490321         0.630828         2.769360
 H         2.111670        -1.806991         1.000829
