19
Iteration:  3759charge 0 multiplicity 1
 C        -0.179596        -0.092944         0.001328
 C         1.379214        -0.023652        -0.045090
 C         2.311662         1.186661         0.071439
 C         3.239513        -0.150066         0.166515
 C         2.456284        -0.758593        -0.967165
 O         4.535715        -0.131480         0.680956
 C         4.261116        -0.300756         2.152097
 O         2.835115        -0.189512         2.403371
 C         2.310840        -0.776583         1.155691
 H        -0.469029         0.611293         0.680164
 H        -0.683457         0.266762        -0.827323
 H        -0.565137        -1.101124         0.280052
 H         2.393107         1.830678        -0.816470
 H         2.442699         1.838752         0.963104
 H         2.480888        -0.190360        -1.895530
 H         2.328821        -1.806104        -0.952959
 H         4.672462        -1.351420         2.332397
 H         4.642430         0.651418         2.549641
 H         2.389349        -1.960719         1.134559
