19
Iteration:  2232charge 0 multiplicity 1
 C        -0.065662         0.099916         0.038358
 C         1.380537        -0.078375         0.038839
 C         2.341728         1.187091         0.002818
 C         3.162305        -0.077335         0.182469
 C         2.278603        -0.801462        -0.995309
 O         4.494832        -0.257153         0.676941
 C         4.248727        -0.052431         2.094905
 O         2.903607        -0.425480         2.403660
 C         2.368090        -0.809677         1.206193
 H        -0.382357         0.856695         0.914395
 H        -0.467325         0.457923        -0.949838
 H        -0.554552        -0.878895         0.221392
 H         2.553039         1.577921        -0.942899
 H         2.266317         1.884431         0.788760
 H         2.517373        -0.295858        -1.928090
 H         2.324442        -1.916793        -1.073080
 H         4.964684        -0.770319         2.667693
 H         4.474035         0.962684         2.377323
 H         2.269285        -1.919881         1.032427
