19
Iteration:  4819
 C        -0.107741        -0.129981         0.003929
 C         1.393557         0.012687         0.075666
 C         2.361551         1.200245         0.141972
 C         3.232308        -0.132442         0.142155
 C         2.397979        -0.740730        -0.981228
 O         4.460772        -0.287770         0.706152
 C         4.285106        -0.137478         2.058577
 O         2.824675        -0.278887         2.344793
 C         2.300860        -0.720356         1.124219
 H        -0.646750         0.466545         0.861890
 H        -0.362260         0.562650        -0.858304
 H        -0.425991        -1.219533        -0.226547
 H         2.436423         1.854899        -0.710596
 H         2.513225         1.834270         1.010383
 H         2.367041        -0.332008        -2.044832
 H         2.445850        -1.777646        -0.935331
 H         4.807309        -0.950423         2.580243
 H         4.562610         0.897766         2.619412
 H         2.282059        -1.839877         1.318064
