19
Iteration:   825charge 0 multiplicity 1
 C        -0.151973         0.072149        -0.020100
 C         1.363222        -0.101521         0.188284
 C         2.317383         1.141794         0.230608
 C         3.211126        -0.121686         0.046734
 C         2.339769        -0.819714        -0.974799
 O         4.538710        -0.115665         0.608760
 C         4.328289        -0.211328         2.072958
 O         2.863128        -0.264763         2.362809
 C         2.345178        -0.818342         1.146321
 H        -0.409901         0.606840         0.894361
 H        -0.317315         0.667723        -0.948333
 H        -0.713580        -0.767118        -0.113359
 H         2.073587         1.813062        -0.512227
 H         2.275046         1.670116         1.188130
 H         2.332552        -0.404707        -1.990119
 H         2.469210        -2.006007        -0.986359
 H         4.723895        -1.180479         2.229877
 H         4.762396         0.629731         2.630830
 H         2.254326        -1.979147         0.995420
