19
Iteration:  4514
 C        -0.153786        -0.159769         0.008988
 C         1.406610        -0.041090         0.075152
 C         2.365884         1.154224         0.075841
 C         3.172524        -0.098438         0.167906
 C         2.405164        -0.697035        -1.073651
 O         4.631598        -0.239822         0.741677
 C         4.294442        -0.246899         2.096912
 O         2.823444        -0.226339         2.375341
 C         2.224010        -0.685402         1.178634
 H        -0.715934         0.719714         0.477494
 H        -0.458738         0.059707        -0.968201
 H        -0.634197        -1.106214         0.417687
 H         2.409621         1.784671        -0.869602
 H         2.333942         2.011171         0.829072
 H         2.336114        -0.060868        -2.025940
 H         2.294733        -1.708046        -1.175602
 H         4.718054        -1.200971         2.545111
 H         4.729450         0.714261         2.539276
 H         2.047207        -1.806328         1.219409
