19
Iteration:  1079charge 0 multiplicity 1
 C        -0.088478         0.076428         0.176007
 C         1.338279        -0.116337         0.054145
 C         2.392037         1.152727         0.003359
 C         3.187040        -0.097377         0.096265
 C         2.248358        -0.772517        -0.983604
 O         4.534296         0.067738         0.729835
 C         4.263269        -0.330029         2.061828
 O         2.876028        -0.402628         2.369455
 C         2.369205        -0.806668         1.118182
 H        -0.406529         0.791257         0.985154
 H        -0.409125         0.591995        -0.745421
 H        -0.550594        -0.885905         0.130231
 H         2.435853         1.673550        -0.972607
 H         2.456807         1.799160         0.859023
 H         2.252747        -0.361343        -2.097900
 H         2.375451        -1.934115        -0.984967
 H         4.571416        -1.396165         2.205460
 H         4.755382         0.379374         2.759644
 H         2.349886        -1.912074         1.174404
