19
Iteration:  1485charge 0 multiplicity 1
 C        -0.116169        -0.032669        -0.046355
 C         1.372049        -0.045685         0.111463
 C         2.291682         1.181218         0.076356
 C         3.227072        -0.163519         0.148206
 C         2.283541        -0.674392        -0.960585
 O         4.584171        -0.268435         0.531634
 C         4.370299        -0.290811         2.180480
 O         2.857443        -0.198617         2.440944
 C         2.274190        -0.690297         1.182143
 H        -0.542211         0.333522         0.822724
 H        -0.485232         0.419997        -0.944645
 H        -0.545688        -1.042257         0.001988
 H         2.298524         1.750393        -0.902112
 H         2.222467         1.771681         0.986945
 H         2.475404        -0.307392        -1.976983
 H         2.264988        -1.731393        -1.118965
 H         4.726615        -1.253868         2.645745
 H         4.848696         0.648454         2.606806
 H         2.154999        -1.862078         1.230423
