19
Iteration:  1677charge 0 multiplicity 1
 C        -0.225708        -0.036294        -0.050664
 C         1.388625        -0.006093         0.086413
 C         2.373999         1.103805         0.064022
 C         3.288529        -0.182014         0.120623
 C         2.301985        -0.797406        -0.882298
 O         4.636602        -0.042750         0.584834
 C         4.207055        -0.374529         2.082038
 O         2.903621        -0.155467         2.431367
 C         2.269708        -0.746681         1.200239
 H        -0.733085         0.492033         0.847042
 H        -0.295850         0.633762        -0.894027
 H        -0.720335        -0.948191        -0.068802
 H         2.587147         1.552272        -0.810557
 H         2.300224         1.669982         0.987433
 H         2.380487        -0.207264        -1.831355
 H         2.162345        -1.830087        -1.019203
 H         4.380310        -1.457020         2.084709
 H         4.800487         0.332299         2.710393
 H         2.164964        -1.928432         1.503858
