19
Iteration:  4286charge 0 multiplicity 1
 C        -0.221104        -0.107199        -0.129460
 C         1.353713        -0.051061         0.133947
 C         2.352285         1.188587        -0.049545
 C         3.217398        -0.106448         0.126371
 C         2.292062        -0.838106        -1.012455
 O         4.607686        -0.002841         0.801692
 C         4.301954        -0.457198         2.130532
 O         2.906789        -0.188488         2.454229
 C         2.330272        -0.634633         1.199915
 H        -0.743853         0.645054         0.577003
 H        -0.508590         0.062344        -1.125920
 H        -0.563851        -1.146428         0.168085
 H         2.209530         1.687118        -0.959850
 H         2.372612         1.931549         0.672906
 H         2.213847        -0.302002        -2.064833
 H         2.447192        -1.875577        -1.188585
 H         4.602708        -1.577930         2.208574
 H         4.972672         0.108376         2.739556
 H         2.166382        -1.727576         1.311665
