19
Iteration:  3851charge 0 multiplicity 1
 C        -0.100827         0.064696         0.028402
 C         1.392601        -0.107849         0.060032
 C         2.313586         1.137634         0.108980
 C         3.241765        -0.119269         0.116101
 C         2.359818        -0.816863        -0.995858
 O         4.573462        -0.177731         0.718299
 C         4.302223        -0.041051         2.090562
 O         2.772170        -0.339469         2.382809
 C         2.340688        -0.882238         1.116169
 H        -0.657188         0.506918         0.890105
 H        -0.267633         0.811336        -0.701237
 H        -0.582005        -0.774036        -0.298877
 H         2.472888         1.682525        -0.872639
 H         2.131961         1.786997         0.984697
 H         2.179553        -0.264985        -1.950038
 H         2.372034        -1.928054        -1.095787
 H         4.837998        -0.739258         2.736485
 H         4.195396         0.978660         2.398585
 H         2.505214        -1.955706         1.214202
