19
Iteration:   890charge 0 multiplicity 1
 C        -0.068649        -0.134051         0.106983
 C         1.392763         0.019525         0.067396
 C         2.521152         1.208419         0.219479
 C         3.262084        -0.124720         0.124295
 C         2.260308        -0.630492        -0.940999
 O         4.451943        -0.415128         0.617170
 C         4.206505         0.043942         2.011426
 O         2.834408        -0.371523         2.370604
 C         2.301030        -0.775741         1.038212
 H        -0.326539         0.254591         1.075104
 H        -0.743994         0.489708        -0.555128
 H        -0.347407        -1.107023        -0.041100
 H         2.504860         1.876126        -0.606212
 H         2.519709         1.823946         1.198002
 H         2.399341        -0.198386        -1.936493
 H         2.301349        -1.833950        -1.056210
 H         4.987259        -0.510511         2.502548
 H         4.225935         1.145786         2.155507
 H         2.306744        -1.989444         1.148228
