19
Iteration:    18charge 0 multiplicity 1
 C        -0.094395        -0.135515         0.008074
 C         1.345038        -0.086537        -0.016290
 C         2.311951         1.170225         0.091907
 C         3.220672        -0.146561         0.185370
 C         2.368885        -0.624791        -1.052781
 O         4.499060        -0.243108         0.605286
 C         4.315560        -0.340300         2.129752
 O         2.939845        -0.093930         2.458025
 C         2.239890        -0.719454         1.222936
 H        -0.408632         0.337364         1.008046
 H        -0.515634         0.472540        -0.842451
 H        -0.554144        -1.123549         0.130937
 H         2.449081         1.660509        -0.900231
 H         2.143801         1.761205         0.998301
 H         2.420960         0.033077        -1.924499
 H         2.299714        -1.715816        -1.296958
 H         4.592087        -1.411619         2.235007
 H         4.953052         0.454714         2.598195
 H         2.022464        -1.817789         1.367915
