19
Iteration:  3435charge 0 multiplicity 1
 C        -0.129809        -0.011991         0.021137
 C         1.332992        -0.082795         0.018692
 C         2.275239         1.184278         0.112114
 C         3.207890        -0.103677         0.078321
 C         2.377718        -0.819747        -1.038586
 O         4.606737        -0.102083         0.745434
 C         4.277845        -0.246470         2.163879
 O         2.845011        -0.269968         2.380845
 C         2.290161        -0.782697         1.130201
 H        -0.511622         0.883220         0.616783
 H        -0.432427         0.105994        -1.040464
 H        -0.751235        -0.759017         0.441270
 H         2.441886         1.717341        -0.831884
 H         2.359915         1.808534         1.011978
 H         2.305204        -0.483251        -2.099774
 H         2.518812        -1.866941        -0.930125
 H         4.857304        -1.169913         2.386148
 H         4.815246         0.651423         2.624715
 H         2.496244        -1.917299         1.187646
