19
Iteration:  4646
 C        -0.144060        -0.083412        -0.085826
 C         1.367000        -0.104807         0.093549
 C         2.348208         1.083914         0.136854
 C         3.261421        -0.176344         0.175672
 C         2.375248        -0.643862        -0.992981
 O         4.550946        -0.255024         0.683812
 C         4.275041        -0.209964         2.060427
 O         2.832687        -0.147944         2.363761
 C         2.285469        -0.711763         1.194270
 H        -0.551766         0.397948         0.889757
 H        -0.480665         0.475986        -0.920730
 H        -0.533012        -1.141443         0.020048
 H         2.460930         1.702488        -0.868842
 H         2.364008         1.529532         1.181391
 H         2.519339         0.046171        -2.005649
 H         2.131655        -1.710927        -1.243444
 H         4.731478        -1.036058         2.657165
 H         4.495705         0.766297         2.526570
 H         2.418811        -1.770063         1.232932
