19
Iteration:  1985
 C        -0.200428        -0.032646         0.108785
 C         1.422993        -0.060809         0.058119
 C         2.305430         1.200173         0.114421
 C         3.266397        -0.086122         0.104021
 C         2.427952        -0.819407        -0.966903
 O         4.492634        -0.269115         0.664343
 C         4.304583        -0.370599         2.055174
 O         2.819610        -0.054659         2.343752
 C         2.319801        -0.704649         1.146937
 H        -0.776353         0.315027         0.971947
 H        -0.656287         0.612130        -0.712691
 H        -0.542782        -1.089827        -0.100625
 H         2.480662         1.887979        -0.763312
 H         2.269054         1.672822         1.073531
 H         2.407594        -0.359927        -1.947621
 H         2.769929        -1.872066        -1.044951
 H         4.537454        -1.387540         2.459836
 H         5.037199         0.305690         2.515607
 H         2.228961        -1.749930         1.184303
