19
Iteration:   199
 C        -0.113564        -0.028170        -0.032596
 C         1.388091        -0.003316         0.165425
 C         2.365327         1.207843         0.171729
 C         3.228157        -0.150117         0.166125
 C         2.316892        -0.705656        -0.928153
 O         4.570392        -0.349407         0.585883
 C         4.249574         0.009488         2.026909
 O         2.843462        -0.377067         2.414798
 C         2.323728        -0.853171         1.138174
 H        -0.709694         0.165948         0.888011
 H        -0.280295         0.908797        -0.663715
 H        -0.495692        -0.897786        -0.661735
 H         2.321114         1.817697        -0.796137
 H         2.361404         1.967276         1.078513
 H         2.461718        -0.354908        -2.041329
 H         2.021024        -1.784650        -1.030109
 H         4.966234        -0.411997         2.665408
 H         4.193249         1.121107         2.142745
 H         2.358335        -1.986977         1.134652
