19
Iteration:  2783
 C        -0.138689         0.074388         0.023214
 C         1.426967        -0.101112         0.107971
 C         2.366002         1.074564         0.134715
 C         3.274168        -0.189442         0.163501
 C         2.379017        -0.767960        -1.045132
 O         4.585318        -0.165692         0.714068
 C         4.174040        -0.069830         2.086559
 O         2.830718        -0.322805         2.380082
 C         2.281736        -0.804357         1.069681
 H        -0.525592         0.487404         0.883795
 H        -0.468945         0.557163        -0.883448
 H        -0.608223        -0.944360        -0.061557
 H         2.212126         1.595379        -0.809568
 H         2.409167         1.705105         1.024564
 H         2.323447        -0.030587        -1.813234
 H         2.158105        -1.853466        -1.293147
 H         4.890557        -0.745062         2.633574
 H         4.479210         0.954090         2.413448
 H         2.232899        -1.852710         1.129450
