19
Iteration:  1381charge 0 multiplicity 1
 C        -0.186302         0.105766         0.117373
 C         1.401192        -0.120151         0.017808
 C         2.323616         1.119536         0.024879
 C         3.221384        -0.083352         0.140350
 C         2.426302        -0.851675        -0.935963
 O         4.553216        -0.032871         0.565671
 C         4.305228        -0.345775         2.035583
 O         2.782692        -0.336770         2.493062
 C         2.329205        -0.716308         1.146945
 H        -0.406787         0.694563         1.038023
 H        -0.456844         0.877120        -0.666037
 H        -0.813270        -0.794468        -0.019306
 H         2.293029         1.715073        -0.942803
 H         2.375852         1.806618         0.925953
 H         2.554361        -0.309549        -1.894381
 H         2.418126        -2.010007        -0.831734
 H         4.667522        -1.373824         2.375109
 H         4.753144         0.460046         2.625864
 H         2.305714        -1.789841         1.098318
