19
Iteration:  4913
 C        -0.197707        -0.100390         0.048474
 C         1.360900        -0.055608         0.021190
 C         2.315665         1.157645        -0.018796
 C         3.210003        -0.077092         0.151490
 C         2.385080        -0.719687        -1.007898
 O         4.545226        -0.136628         0.750510
 C         4.315049        -0.392476         2.162482
 O         2.881811        -0.202209         2.407141
 C         2.301223        -0.659865         1.120923
 H        -0.668149         0.582934         0.681330
 H        -0.554802         0.302856        -0.945581
 H        -0.396257        -1.124554         0.023985
 H         2.437867         1.601883        -1.029567
 H         2.273848         2.095428         0.708724
 H         2.367346        -0.203798        -1.993743
 H         2.616872        -1.951160        -0.985152
 H         4.578746        -1.463033         2.372975
 H         4.852634         0.147561         2.870299
 H         2.290241        -1.731448         1.259105
