19
Iteration:   922charge 0 multiplicity 1
 C        -0.197328         0.129773         0.176104
 C         1.296673        -0.095081         0.144512
 C         2.316847         1.056383         0.108605
 C         3.308062        -0.241818         0.070478
 C         2.341504        -0.686504        -1.094199
 O         4.578920        -0.215764         0.681499
 C         4.239763        -0.009348         2.150092
 O         2.900646        -0.390022         2.340989
 C         2.331154        -0.831646         1.071159
 H        -0.432845         0.735924         1.035007
 H        -0.519464         0.550411        -0.823999
 H        -0.746862        -0.823846         0.205886
 H         2.192033         1.704053        -0.739643
 H         2.540867         1.691301         1.047752
 H         2.504896        -0.002749        -1.900615
 H         2.499679        -1.778666        -1.455589
 H         5.000880        -0.700276         2.509545
 H         4.411183         1.027932         2.360335
 H         2.152128        -1.926612         1.095063
