19
Iteration:   418
 C        -0.117056         0.052932         0.156209
 C         1.417540        -0.094887         0.056714
 C         2.427486         1.113799         0.142473
 C         3.258373        -0.215746         0.139129
 C         2.340787        -0.696439        -1.021379
 O         4.515976        -0.397809         0.729592
 C         4.146941         0.184890         2.016133
 O         2.889576        -0.398252         2.308363
 C         2.334383        -0.833730         1.102660
 H        -0.484874         0.580360         1.002507
 H        -0.427997         0.777077        -0.691386
 H        -0.720816        -0.913669         0.247145
 H         2.431854         1.740076        -0.762572
 H         2.394964         1.714546         1.034732
 H         2.224456        -0.018831        -1.884851
 H         2.088792        -1.731065        -1.245156
 H         4.916711        -0.253542         2.757501
 H         4.001831         1.305550         2.017053
 H         2.305477        -1.955583         1.028041
