19
Iteration:   156
 C        -0.214942        -0.026587         0.040818
 C         1.357230        -0.012087         0.041427
 C         2.415003         1.099216         0.172886
 C         3.239131        -0.291251         0.155726
 C         2.331351        -0.591418        -1.012108
 O         4.579047        -0.281774         0.661574
 C         4.249712        -0.027268         2.038868
 O         2.868231        -0.317481         2.428382
 C         2.306756        -0.833754         1.092548
 H        -0.637957         0.348437         0.931702
 H        -0.632687         0.658537        -0.833690
 H        -0.550420        -1.101646         0.148319
 H         2.656938         1.797988        -0.720698
 H         2.476849         1.800190         1.139269
 H         2.645354        -0.141070        -2.047589
 H         2.120815        -1.655057        -1.320893
 H         4.896132        -0.440494         2.748202
 H         4.321768         1.085022         2.116339
 H         2.251407        -1.919625         1.252719
