19
Iteration:  3468
 C        -0.102172        -0.035841        -0.038529
 C         1.347250        -0.086566         0.126421
 C         2.379710         1.149875         0.127550
 C         3.172767        -0.182611         0.096017
 C         2.359604        -0.747974        -1.040093
 O         4.543240        -0.146832         0.694480
 C         4.253605        -0.131411         2.074300
 O         2.843442        -0.271622         2.438459
 C         2.330270        -0.828552         1.188188
 H        -0.525554         0.674421         0.728338
 H        -0.232776         0.511098        -0.999951
 H        -0.612977        -0.975490        -0.063896
 H         2.501589         1.711971        -0.804659
 H         2.439034         1.868283         0.937423
 H         2.314168        -0.262538        -2.049338
 H         2.307572        -1.799208        -1.208414
 H         4.892429        -0.960800         2.524972
 H         4.473062         0.929581         2.605624
 H         2.276766        -1.990891         1.017343
