19
Iteration:  3754
 C        -0.178828        -0.078267         0.001638
 C         1.388261        -0.045644        -0.037231
 C         2.311157         1.183728         0.045797
 C         3.248976        -0.149814         0.222055
 C         2.463879        -0.787351        -0.966453
 O         4.508882        -0.100583         0.661972
 C         4.239238        -0.298616         2.151209
 O         2.870434        -0.206212         2.397781
 C         2.328394        -0.760290         1.116030
 H        -0.498613         0.660922         0.870672
 H        -0.857408         0.372772        -0.893409
 H        -0.642224        -1.047326         0.217755
 H         2.464573         1.804698        -0.843787
 H         2.330463         1.630522         1.042194
 H         2.553231        -0.161337        -1.869441
 H         2.261369        -1.907401        -1.151155
 H         4.602002        -1.273162         2.475893
 H         4.686892         0.543710         2.731031
 H         2.334483        -1.817411         1.279051
