19
Iteration:  3024charge 0 multiplicity 1
 C        -0.084406        -0.017148        -0.022786
 C         1.387768        -0.120683         0.088815
 C         2.269284         1.166232         0.075220
 C         3.243333        -0.116556         0.132140
 C         2.416114        -0.793448        -0.972804
 O         4.572376        -0.053533         0.681739
 C         4.273686        -0.318825         2.120622
 O         2.874939        -0.211754         2.402069
 C         2.234299        -0.802834         1.146288
 H        -0.649705         0.594215         0.686497
 H        -0.367523         0.590960        -0.849874
 H        -0.894023        -0.782200        -0.230761
 H         2.255715         1.781617        -0.849624
 H         2.226842         1.684833         1.006053
 H         2.407008        -0.457809        -2.035517
 H         2.456187        -1.815985        -0.973512
 H         4.614937        -1.305532         2.380536
 H         4.832544         0.475391         2.609684
 H         2.000295        -1.819933         1.322945
