19
Iteration:  1849
 C        -0.166848        -0.044843         0.042382
 C         1.371703         0.025529         0.206949
 C         2.492743         1.122331         0.135909
 C         3.225529        -0.196715         0.093451
 C         2.291839        -0.682981        -0.971723
 O         4.527763        -0.407950         0.661331
 C         4.322479         0.038419         2.063581
 O         2.833449        -0.298804         2.336495
 C         2.247143        -0.794592         1.117044
 H        -0.761103         0.424481         0.876536
 H        -0.304644         0.571824        -0.839177
 H        -0.324098        -1.085837        -0.255468
 H         2.624607         1.777990        -0.761441
 H         2.477637         1.899085         1.040175
 H         2.325989        -0.134296        -1.960753
 H         2.238135        -1.771638        -1.084265
 H         4.910801        -0.568519         2.696680
 H         4.419485         1.113786         2.358202
 H         2.111832        -1.879160         0.929699
