19
Iteration:  4123charge 0 multiplicity 1
 C        -0.136809         0.044661        -0.143539
 C         1.328600        -0.125523         0.088671
 C         2.358219         1.073420         0.213228
 C         3.298007        -0.191662         0.177461
 C         2.324056        -0.756610        -0.932770
 O         4.539529        -0.193170         0.691042
 C         4.314697        -0.004038         2.080328
 O         2.867779        -0.324390         2.390649
 C         2.285834        -0.804795         1.083731
 H        -0.632455         0.905513         0.558458
 H        -0.371558         0.226111        -1.230870
 H        -0.769889        -0.846484         0.077279
 H         2.298484         1.860537        -0.575488
 H         2.466921         1.587639         1.183404
 H         2.316594        -0.250775        -2.019857
 H         2.250109        -1.859519        -1.098429
 H         5.014731        -0.643772         2.634939
 H         4.411431         0.990717         2.502442
 H         2.145353        -1.864530         1.072757
