19
Iteration:   710charge 0 multiplicity 1
 C        -0.179379        -0.105405         0.032908
 C         1.376585        -0.058831         0.072639
 C         2.346508         1.147357         0.140559
 C         3.225387        -0.173781         0.169714
 C         2.248246        -0.627581        -0.996066
 O         4.571240        -0.218091         0.647901
 C         4.324266        -0.305883         2.099218
 O         2.925018        -0.136078         2.347053
 C         2.299934        -0.753136         1.160537
 H        -0.599910         0.296830         0.966709
 H        -0.503812         0.441088        -0.799706
 H        -0.671844        -1.144744        -0.195555
 H         2.426478         1.440738        -1.000250
 H         2.198562         1.973948         0.858706
 H         2.610981        -0.003124        -1.873893
 H         2.228025        -1.644108        -1.249010
 H         4.647246        -1.242890         2.494674
 H         4.755010         0.636223         2.518985
 H         2.188742        -1.898958         1.421431
