19
Iteration:  4670charge 0 multiplicity 1
 C        -0.117196        -0.087258         0.027722
 C         1.423933        -0.028262         0.043111
 C         2.347141         1.235749         0.155395
 C         3.244642        -0.111110         0.230863
 C         2.397161        -0.733341        -1.031018
 O         4.493172        -0.345536         0.646962
 C         4.243394        -0.088161         2.122547
 O         2.855833        -0.272456         2.318857
 C         2.276919        -0.744234         1.135700
 H        -0.689784         0.636534         0.708894
 H        -0.359639         0.152668        -1.028348
 H        -0.454198        -1.081319         0.285077
 H         2.284256         1.807954        -0.819963
 H         2.197682         1.609581         1.128267
 H         2.665710        -0.206050        -2.018758
 H         2.380082        -1.857359        -1.102442
 H         4.792433        -0.887975         2.790789
 H         4.433978         0.908695         2.462734
 H         2.287636        -1.860800         1.141007
