19
Iteration:  2376charge 0 multiplicity 1
 C        -0.170297        -0.012150        -0.038150
 C         1.363331        -0.089177         0.161391
 C         2.381644         1.109535         0.078432
 C         3.266154        -0.146329         0.105780
 C         2.318074        -0.766200        -0.963091
 O         4.521098        -0.163024         0.673398
 C         4.267609        -0.172511         2.144651
 O         2.892483        -0.243506         2.288887
 C         2.327420        -0.723541         1.185006
 H        -0.736978         0.680943         0.738336
 H        -0.345510         0.415167        -1.094098
 H        -0.752063        -0.946211         0.239467
 H         2.605358         1.710037        -0.788697
 H         2.307846         1.459704         1.066407
 H         2.151513        -0.210742        -1.955510
 H         2.190248        -1.873185        -1.013699
 H         4.665349        -1.188393         2.562598
 H         4.845583         0.594081         2.642740
 H         2.321266        -1.871445         1.328536
