19
Iteration:   495charge 0 multiplicity 1
 C        -0.164523        -0.060333        -0.008280
 C         1.340355        -0.051786         0.128050
 C         2.282355         1.177847        -0.017447
 C         3.227648        -0.144826         0.140448
 C         2.271049        -0.778568        -0.930716
 O         4.561489        -0.109379         0.642835
 C         4.309910        -0.384394         2.091605
 O         2.957324        -0.202258         2.446589
 C         2.336462        -0.658455         1.175322
 H        -0.587478         0.542259         0.747195
 H        -0.643775         0.294703        -1.054396
 H        -0.731341        -1.064107        -0.141325
 H         2.299993         1.775103        -0.968061
 H         2.403666         1.757676         0.835345
 H         2.517943        -0.178984        -1.835748
 H         2.322198        -1.811160        -1.163466
 H         4.667087        -1.414006         2.533224
 H         4.901069         0.298960         2.787122
 H         2.228349        -1.743456         1.100536
