19
Iteration:   515
 C        -0.140399        -0.037632        -0.018977
 C         1.331509        -0.067916         0.037761
 C         2.336657         1.190381         0.074982
 C         3.189732        -0.074573         0.186470
 C         2.351535        -0.849387        -0.935969
 O         4.482477        -0.037587         0.671412
 C         4.398300        -0.436974         1.991902
 O         2.933396        -0.127770         2.407603
 C         2.269515        -0.719087         1.243018
 H        -0.646403         0.366304         0.879968
 H        -0.670160         0.424609        -0.945134
 H        -0.466161        -1.196512        -0.196715
 H         2.498076         1.573356        -0.932465
 H         2.174947         1.970408         0.783757
 H         2.511252        -0.314135        -1.970892
 H         2.279241        -1.903894        -0.807172
 H         4.295775        -1.598398         2.054305
 H         5.271521        -0.308260         2.693212
 H         2.171763        -1.750353         1.444347
