19
Iteration:  2509
 C        -0.154285         0.054044        -0.018835
 C         1.339305        -0.088541         0.011516
 C         2.255987         1.100286         0.110523
 C         3.227298        -0.121146         0.129212
 C         2.327635        -0.762039        -1.041888
 O         4.569860        -0.253482         0.668404
 C         4.267287        -0.137467         2.161504
 O         2.882547        -0.243659         2.401056
 C         2.400669        -0.768477         1.202436
 H        -0.432366         0.551342         0.905136
 H        -0.535061         0.800702        -0.825970
 H        -0.599370        -1.027154        -0.215335
 H         2.517287         1.751285        -0.695772
 H         2.245324         1.708158         1.039311
 H         2.169492        -0.370777        -2.096008
 H         2.347376        -1.896379        -0.982594
 H         4.968762        -1.031035         2.357298
 H         4.669986         0.729584         2.626984
 H         2.357789        -1.925448         1.336388
