19
Iteration:  4512charge 0 multiplicity 1
 C        -0.153034        -0.142521        -0.000117
 C         1.396761        -0.061794         0.061269
 C         2.361345         1.161090         0.077391
 C         3.176151        -0.090553         0.173937
 C         2.386356        -0.678309        -1.077277
 O         4.630433        -0.252780         0.753536
 C         4.306791        -0.233182         2.091453
 O         2.824946        -0.235826         2.376265
 C         2.228647        -0.690045         1.195513
 H        -0.662791         0.634802         0.478319
 H        -0.506988         0.025269        -0.964972
 H        -0.584423        -1.049696         0.417736
 H         2.373014         1.705787        -0.945018
 H         2.351520         1.981185         0.839932
 H         2.402179        -0.056777        -2.031796
 H         2.319184        -1.778903        -1.159959
 H         4.765120        -1.138057         2.484933
 H         4.710390         0.705478         2.563905
 H         2.028683        -1.731567         1.193449
