19
Iteration:  2397
 C        -0.113828        -0.025518         0.035912
 C         1.382977        -0.049482        -0.015576
 C         2.339887         1.154760         0.160867
 C         3.241368        -0.183118         0.204677
 C         2.313888        -0.737191        -1.030944
 O         4.579713        -0.229114         0.642533
 C         4.283739        -0.248479         2.042554
 O         2.839290        -0.115625         2.405579
 C         2.276539        -0.778024         1.134992
 H        -0.671596         0.625009         0.851322
 H        -0.550546         0.203631        -0.977229
 H        -0.404203        -1.022005         0.416166
 H         2.150119         1.673571        -0.789577
 H         2.377595         1.600289         1.133006
 H         2.629230        -0.327945        -2.068444
 H         2.413993        -1.856884        -1.002480
 H         4.763304        -1.044737         2.664414
 H         4.564544         0.652494         2.531813
 H         2.244039        -1.919771         1.291323
