19
Iteration:  2978charge 0 multiplicity 1
 C        -0.047496        -0.105824        -0.031920
 C         1.383197        -0.042262         0.181171
 C         2.356602         1.179448         0.115590
 C         3.214606        -0.142907         0.156384
 C         2.361198        -0.735173        -1.035895
 O         4.561859        -0.216802         0.669638
 C         4.245247        -0.262489         2.121492
 O         2.842417        -0.178426         2.364605
 C         2.240933        -0.674290         1.114898
 H        -0.610434         0.069342         0.850236
 H        -0.630995         0.498608        -0.831437
 H        -0.219219        -1.187932        -0.270209
 H         2.332226         1.678627        -0.906769
 H         2.363514         1.825796         1.026985
 H         2.305740        -0.227058        -1.930153
 H         2.295470        -1.852202        -1.127076
 H         4.736875        -1.220352         2.334295
 H         4.593199         0.543566         2.808127
 H         2.229758        -1.738966         1.253074
