19
Iteration:  2999charge 0 multiplicity 1
 C        -0.186808        -0.040890        -0.064898
 C         1.361751        -0.084040         0.019137
 C         2.312810         1.107800         0.102019
 C         3.231354        -0.123910         0.165489
 C         2.404560        -0.710091        -0.972443
 O         4.519171        -0.163793         0.679211
 C         4.298736        -0.339047         2.143046
 O         2.844363        -0.142209         2.368159
 C         2.402110        -0.733668         1.195306
 H        -0.701907         0.213534         0.782537
 H        -0.851309         0.520628        -0.694263
 H        -0.822561        -0.882481        -0.248526
 H         2.473264         1.722393        -0.859211
 H         2.190982         1.758352         1.018838
 H         2.524366        -0.175206        -1.851952
 H         2.376978        -1.870943        -1.023329
 H         4.677392        -1.322042         2.544281
 H         4.888013         0.535035         2.532875
 H         2.450794        -1.853732         1.203351
