19
Iteration:    55charge 0 multiplicity 1
 C        -0.124780        -0.209861        -0.015141
 C         1.372284        -0.019709         0.135600
 C         2.337418         1.254925         0.094490
 C         3.287077         0.004455         0.148591
 C         2.278303        -0.762315        -0.855414
 O         4.581187        -0.113985         0.607331
 C         4.205630        -0.544443         2.095327
 O         2.932548        -0.106289         2.344514
 C         2.280911        -0.658261         1.104906
 H        -0.634495         0.394435         0.779098
 H        -0.395222         0.282437        -0.848498
 H        -0.486174        -1.202349        -0.209077
 H         2.353064         1.730867        -0.896640
 H         2.350528         1.949751         0.954755
 H         2.165079        -0.544812        -1.925178
 H         2.360619        -1.821075        -0.632777
 H         4.291710        -1.558922         2.148025
 H         4.853670        -0.069053         2.796105
 H         2.199333        -1.741134         1.316800
