19
Iteration:  4824charge 0 multiplicity 1
 C        -0.116696        -0.092504         0.005108
 C         1.406715        -0.029139         0.073539
 C         2.350681         1.190032         0.126538
 C         3.237435        -0.132163         0.102793
 C         2.416143        -0.727759        -0.991872
 O         4.443977        -0.277470         0.729523
 C         4.295272        -0.151304         2.055225
 O         2.822513        -0.264877         2.356530
 C         2.327804        -0.721644         1.161596
 H        -0.530292         0.416311         0.817779
 H        -0.452124         0.364993        -0.922226
 H        -0.490657        -1.061141        -0.149356
 H         2.316235         1.900602        -0.759013
 H         2.338501         1.832702         1.035827
 H         2.438495        -0.196363        -1.916199
 H         2.397610        -1.877330        -0.876359
 H         4.841319        -0.998355         2.536429
 H         4.575859         0.724222         2.534520
 H         2.205180        -1.799113         1.141334
