19
Iteration:  1882charge 0 multiplicity 1
 C        -0.101838         0.022496         0.071849
 C         1.421045        -0.032294         0.042476
 C         2.415016         1.093425         0.175693
 C         3.207063        -0.206685         0.121453
 C         2.309211        -0.694610        -1.064734
 O         4.517731        -0.428913         0.622757
 C         4.321397         0.039930         2.059344
 O         2.785446        -0.274341         2.476949
 C         2.314904        -0.757521         1.110123
 H        -0.495513         0.725798         0.877267
 H        -0.495232         0.332512        -0.892053
 H        -0.609180        -0.938217         0.279296
 H         2.472077         1.860888        -0.653243
 H         2.172769         1.482860         1.257528
 H         2.389799        -0.061349        -1.990614
 H         2.342514        -1.771233        -1.245873
 H         4.991048        -0.575392         2.575835
 H         4.476478         1.118087         2.181493
 H         2.177117        -1.853127         1.035631
