19
Iteration:   962
 C        -0.081168         0.102160         0.051362
 C         1.412403        -0.054187         0.145165
 C         2.271918         1.125043         0.175939
 C         3.203855        -0.148151         0.089140
 C         2.354405        -0.825491        -0.961634
 O         4.516159        -0.068149         0.582351
 C         4.326048        -0.191587         2.079494
 O         2.883171        -0.418713         2.365587
 C         2.308212        -0.767653         1.103916
 H        -0.423327         0.804992         0.799148
 H        -0.417827         0.509869        -0.899502
 H        -0.668275        -0.915968         0.129115
 H         2.160712         1.754007        -0.722713
 H         2.401191         1.672004         1.114227
 H         2.302937        -0.353131        -1.924195
 H         2.229127        -1.844499        -0.944531
 H         4.799901        -1.074452         2.579165
 H         4.542365         0.805929         2.522032
 H         2.054666        -1.796381         1.189501
