19
Iteration:   946charge 0 multiplicity 1
 C        -0.076370         0.171997         0.117362
 C         1.346886        -0.120165         0.026392
 C         2.314115         1.124695         0.140493
 C         3.208634        -0.123208         0.162779
 C         2.318385        -0.776046        -0.982525
 O         4.532047        -0.102525         0.635316
 C         4.281473        -0.104877         2.014679
 O         2.835845        -0.403251         2.359816
 C         2.352981        -0.931118         1.170977
 H        -0.177542         0.886330         0.972475
 H        -0.394299         0.550329        -0.872129
 H        -0.674089        -0.630635         0.323424
 H         2.395551         1.845606        -0.677342
 H         2.053223         1.602503         1.100218
 H         2.445698        -0.340539        -2.044660
 H         2.416130        -1.972570        -0.939615
 H         4.991729        -0.863483         2.252808
 H         4.546119         0.874329         2.446101
 H         2.468659        -2.102879         0.927748
