19
Iteration:  3716charge 0 multiplicity 1
 C        -0.100906         0.035312        -0.016265
 C         1.387081        -0.142768         0.131687
 C         2.336436         1.137764         0.028975
 C         3.286297        -0.119177         0.107307
 C         2.323994        -0.849789        -0.914774
 O         4.520877         0.001007         0.695710
 C         4.182284        -0.284884         2.175180
 O         2.787654        -0.215727         2.330423
 C         2.442484        -0.827675         1.145907
 H        -0.428681         0.221244         0.956781
 H        -0.249365         0.772972        -0.669403
 H        -0.518945        -0.938234        -0.322781
 H         2.325516         1.746347        -0.899046
 H         2.203538         1.891126         0.812962
 H         2.527982        -0.254860        -1.829711
 H         2.180870        -1.893095        -1.048392
 H         4.434783        -1.352178         2.144098
 H         4.794964         0.430646         2.719669
 H         2.413339        -1.909632         1.039094
