19
Iteration:  1202charge 0 multiplicity 1
 C        -0.160411         0.002053         0.066148
 C         1.368570        -0.020933         0.116883
 C         2.221663         1.244778         0.144215
 C         3.263185        -0.270006         0.131538
 C         2.365964        -0.594622        -1.019542
 O         4.532953        -0.371783         0.610789
 C         4.305177        -0.028051         2.132864
 O         2.922547        -0.394227         2.372720
 C         2.308164        -0.788309         1.107396
 H        -0.553422         0.341876         1.005418
 H        -0.463690         0.722959        -0.681775
 H        -0.665982        -1.001524        -0.275429
 H         2.146779         1.745862        -0.762717
 H         2.538069         1.709797         1.084094
 H         2.538252         0.055874        -1.968474
 H         2.391188        -1.722557        -1.362118
 H         4.850575        -0.655448         2.816667
 H         4.658597         1.024994         2.274808
 H         2.119478        -1.860158         1.193389
