19
Iteration:  2236
 C        -0.082838         0.089069         0.070544
 C         1.379979        -0.060267         0.035933
 C         2.330915         1.185394         0.008162
 C         3.188352        -0.063290         0.166878
 C         2.294609        -0.800560        -1.008284
 O         4.484206        -0.266789         0.673544
 C         4.279917        -0.063475         2.115665
 O         2.896557        -0.417753         2.385839
 C         2.326740        -0.833107         1.208033
 H        -0.422013         0.746355         0.798471
 H        -0.341400         0.464224        -0.943372
 H        -0.562262        -0.870095         0.258538
 H         2.586615         1.615512        -1.011025
 H         2.251886         1.965359         0.798325
 H         2.579024        -0.327853        -1.960250
 H         2.411988        -1.858257        -1.026206
 H         4.994686        -0.690618         2.699886
 H         4.551256         0.999525         2.366115
 H         2.155848        -1.889520         1.122923
