19
Iteration:  2331charge 0 multiplicity 1
 C        -0.141923         0.019774         0.008302
 C         1.309085        -0.039770        -0.047506
 C         2.341023         1.142458         0.063143
 C         3.191981        -0.123709         0.147064
 C         2.369811        -0.837614        -0.918641
 O         4.524881        -0.191081         0.697501
 C         4.285861        -0.219358         2.084292
 O         2.938939        -0.286870         2.408608
 C         2.276405        -0.685806         1.173135
 H        -0.558431         0.373403         1.065621
 H        -0.487546         0.708660        -0.810397
 H        -0.593126        -0.960643        -0.107114
 H         2.320162         1.707330        -0.850358
 H         2.298027         1.715855         0.936471
 H         2.591749        -0.308297        -1.878090
 H         2.491891        -1.947388        -0.990306
 H         5.066269        -0.940072         2.420912
 H         4.674848         0.704993         2.392049
 H         2.101420        -1.821661         1.221308
