19
Iteration:   597
 C        -0.134155        -0.014789         0.145064
 C         1.356142         0.007925         0.085699
 C         2.421325         1.174293         0.181323
 C         3.220744        -0.168568         0.071080
 C         2.439846        -0.733490        -1.017617
 O         4.501971        -0.289407         0.590235
 C         4.242584        -0.045639         2.057184
 O         2.803870        -0.295932         2.382316
 C         2.299195        -0.849569         1.131358
 H        -0.625737         0.648941         0.940783
 H        -0.499702         0.318825        -0.861690
 H        -0.495867        -0.974252         0.316338
 H         2.619055         1.818373        -0.668540
 H         2.478809         1.684962         1.211589
 H         2.468051        -0.383629        -1.948306
 H         2.238586        -1.819173        -1.124203
 H         4.871138        -0.770001         2.657296
 H         4.385909         1.006237         2.192404
 H         2.429314        -1.954169         1.084923
