19
Iteration:  1779charge 0 multiplicity 1
 C        -0.080087         0.094390         0.065024
 C         1.439016        -0.128998         0.122327
 C         2.344676         1.107484         0.077695
 C         3.240927        -0.196097         0.153326
 C         2.300955        -0.758656        -0.995148
 O         4.570125        -0.169952         0.517849
 C         4.215650        -0.182663         2.195180
 O         2.804524        -0.230828         2.418785
 C         2.332852        -0.801951         1.116471
 H        -0.472321         0.826152         0.743893
 H        -0.341666         0.617515        -0.901028
 H        -0.614153        -0.895879        -0.065169
 H         2.493050         1.766239        -0.819449
 H         2.371183         1.692337         0.990001
 H         2.179445        -0.208858        -1.929179
 H         2.130970        -1.883020        -0.985841
 H         4.727872        -1.089887         2.519996
 H         4.677478         0.647554         2.653147
 H         2.241463        -2.005636         1.201738
