19
Iteration:  4268charge 0 multiplicity 1
 C        -0.043526        -0.091463        -0.032209
 C         1.387281        -0.044356         0.069604
 C         2.304211         1.158920        -0.017062
 C         3.243099        -0.091926         0.167391
 C         2.344791        -0.757377        -0.885605
 O         4.506292        -0.063067         0.697593
 C         4.263268        -0.390093         2.122927
 O         2.851177        -0.168771         2.386721
 C         2.317160        -0.728616         1.181588
 H        -0.666349         0.398001         0.708658
 H        -0.414709         0.260280        -1.038296
 H        -0.481066        -1.085740        -0.122559
 H         2.461556         1.650940        -1.014243
 H         2.308221         1.869454         0.875330
 H         2.391267        -0.525388        -1.927936
 H         2.147346        -1.863503        -0.930157
 H         4.445422        -1.445778         2.193963
 H         4.879029         0.271404         2.752869
 H         2.329614        -1.810357         1.094389
