19
Iteration:  3330charge 0 multiplicity 1
 C        -0.157733        -0.022468        -0.059170
 C         1.348687        -0.085098         0.076822
 C         2.303475         1.118357         0.107225
 C         3.204551        -0.105814         0.163844
 C         2.403393        -0.795719        -1.000852
 O         4.525396        -0.142569         0.660013
 C         4.290595        -0.236650         2.163069
 O         2.888459        -0.188979         2.412472
 C         2.318119        -0.776491         1.096469
 H        -0.492100         0.177336         0.900777
 H        -0.469810         0.810676        -0.662365
 H        -0.523989        -1.029015        -0.461164
 H         2.518065         1.744984        -0.810011
 H         2.140587         1.817477         0.949841
 H         2.306600        -0.273872        -2.019371
 H         2.574740        -1.891876        -1.008849
 H         4.693336        -1.246834         2.441801
 H         4.772978         0.530079         2.676088
 H         2.238451        -1.825815         1.478818
