19
Iteration:   651
 C        -0.178972         0.134951         0.036936
 C         1.310101        -0.072927         0.058870
 C         2.452917         1.054804         0.135218
 C         3.239615        -0.229826         0.122724
 C         2.277331        -0.719547        -0.996035
 O         4.509781        -0.202894         0.682090
 C         4.246705         0.106280         2.018225
 O         2.925532        -0.485439         2.395408
 C         2.338673        -0.918874         1.183764
 H        -0.434720         0.692138         1.041146
 H        -0.450261         0.919601        -0.809643
 H        -0.682232        -0.812732         0.006359
 H         2.509759         1.610924        -0.801126
 H         2.454829         1.796796         1.001127
 H         2.400665        -0.102077        -1.790686
 H         2.383536        -1.785666        -1.254531
 H         5.139488        -0.177839         2.700863
 H         4.190679         1.224054         2.048954
 H         2.201029        -1.971887         1.117029
