19
Iteration:   400
 C        -0.057518         0.107084         0.095812
 C         1.382113        -0.031707         0.138883
 C         2.402080         1.115476         0.151935
 C         3.243539        -0.179747         0.032208
 C         2.263781        -0.817714        -1.022049
 O         4.572261        -0.272174         0.681648
 C         4.181967         0.110918         2.030089
 O         2.829687        -0.448073         2.417000
 C         2.345694        -0.832652         1.084526
 H        -0.453686         0.441824         1.086565
 H        -0.410294         0.879346        -0.649190
 H        -0.447348        -0.857042        -0.129087
 H         2.366348         1.902757        -0.737788
 H         2.485519         1.708263         1.081121
 H         2.358578        -0.502283        -2.069429
 H         2.313004        -2.009860        -0.976744
 H         4.931320        -0.275111         2.687852
 H         4.036982         1.181743         2.136075
 H         2.164848        -1.961502         1.069915
