19
Iteration:  4802charge 0 multiplicity 1
 C        -0.144189        -0.100914        -0.045111
 C         1.386278         0.010918         0.111904
 C         2.462661         1.168287         0.155346
 C         3.264037        -0.169628         0.126080
 C         2.314747        -0.703308        -0.961819
 O         4.591624        -0.287498         0.614672
 C         4.212094        -0.069382         2.136380
 O         2.820437        -0.278314         2.383072
 C         2.263439        -0.777253         1.132157
 H        -0.587603        -0.016083         0.903948
 H        -0.690145         0.419259        -0.832215
 H        -0.282787        -1.079026        -0.416919
 H         2.552003         1.884390        -0.759777
 H         2.351496         1.823553         1.033185
 H         2.417712        -0.122520        -1.856745
 H         2.103166        -1.851241        -0.869381
 H         4.870053        -0.752224         2.785021
 H         4.436148         0.926048         2.348915
 H         2.045535        -1.829634         1.054585
