19
Iteration:  3879
 C        -0.129337         0.066628         0.092744
 C         1.400478        -0.034593         0.023209
 C         2.410150         1.064035         0.109506
 C         3.286406        -0.209047         0.103292
 C         2.357327        -0.806021        -1.059274
 O         4.537764        -0.152888         0.703261
 C         4.153571         0.046815         2.174286
 O         2.864032        -0.379844         2.382301
 C         2.300806        -0.888764         1.074045
 H        -0.604072         0.213085         1.065513
 H        -0.464489         0.986344        -0.531744
 H        -0.625115        -0.898230        -0.394405
 H         2.588756         1.649422        -0.786365
 H         2.377381         1.792417         0.918282
 H         2.336834        -0.205446        -1.983906
 H         2.150290        -1.876842        -1.045050
 H         4.922919        -0.545337         2.764746
 H         4.185587         1.149082         2.355306
 H         2.268133        -1.961111         1.268316
