19
Iteration:  1225
 C        -0.125021         0.204721         0.105774
 C         1.363406        -0.165840         0.076963
 C         2.340992         1.071031         0.246588
 C         3.225141        -0.132114         0.090711
 C         2.317580        -0.706305        -1.011949
 O         4.554479        -0.190048         0.673668
 C         4.277644        -0.038836         2.010342
 O         2.811197        -0.404947         2.344057
 C         2.383292        -0.895951         1.110463
 H        -0.433187         0.665829         0.977801
 H        -0.360632         0.815371        -0.763083
 H        -0.711416        -0.762228        -0.111638
 H         2.474236         1.572706        -0.686585
 H         2.343516         1.565402         1.219985
 H         2.179065        -0.199823        -2.016277
 H         2.458931        -1.862730        -1.186947
 H         4.886073        -0.663919         2.658751
 H         4.473735         1.004920         2.302530
 H         2.355959        -2.007469         0.989268
