19
Iteration:  3188charge 0 multiplicity 1
 C        -0.171830         0.074799        -0.009522
 C         1.358045        -0.097849         0.034582
 C         2.345437         1.067705         0.130519
 C         3.266581        -0.133672         0.108550
 C         2.385413        -0.794711        -0.977090
 O         4.508117        -0.198830         0.701152
 C         4.247633        -0.034849         2.127608
 O         2.885159        -0.337565         2.375808
 C         2.330055        -0.832404         1.140026
 H        -0.631932         0.421190         0.899672
 H        -0.442947         0.716219        -0.836332
 H        -0.630608        -0.920795        -0.307341
 H         2.381534         2.030127        -0.522676
 H         2.185531         1.723602         1.058806
 H         2.400200        -0.192747        -2.001728
 H         2.427054        -1.896372        -0.997260
 H         4.980761        -0.699147         2.722773
 H         4.433553         1.052679         2.268330
 H         2.383620        -1.991994         1.043689
