19
Iteration:   598charge 0 multiplicity 1
 C        -0.140731        -0.010520         0.140246
 C         1.363654         0.003438         0.085763
 C         2.420991         1.170935         0.187476
 C         3.219824        -0.164854         0.068339
 C         2.443144        -0.731544        -1.010492
 O         4.502768        -0.295816         0.594042
 C         4.236194        -0.034949         2.050502
 O         2.800332        -0.302064         2.374023
 C         2.305348        -0.849995         1.139066
 H        -0.620656         0.650461         0.929877
 H        -0.475329         0.326476        -0.814103
 H        -0.476139        -0.967308         0.338096
 H         2.628501         1.800444        -0.676782
 H         2.477934         1.680644         1.224751
 H         2.468395        -0.362072        -1.976630
 H         2.197265        -1.809905        -1.087602
 H         4.852708        -0.732926         2.624448
 H         4.389709         1.017742         2.177304
 H         2.437982        -1.975525         1.051314
