19
Iteration:  3286
 C        -0.139911        -0.000753         0.017476
 C         1.437068        -0.134059         0.115915
 C         2.399058         1.127947         0.083763
 C         3.252152        -0.138443         0.136808
 C         2.381926        -0.723961        -1.025925
 O         4.509609        -0.168515         0.667363
 C         4.242564        -0.090688         2.150628
 O         2.822362        -0.288237         2.385503
 C         2.272019        -0.865214         1.178303
 H        -0.616581         0.660606         0.686080
 H        -0.363984         0.437727        -0.922511
 H        -0.582467        -1.034138        -0.066050
 H         2.359559         1.806623        -0.872996
 H         2.374592         1.879831         0.925256
 H         2.294620        -0.088910        -1.990584
 H         2.393622        -1.805700        -1.251247
 H         4.947897        -0.880281         2.511655
 H         4.508305         0.886244         2.405835
 H         2.148806        -1.999370         1.066008
