19
Iteration:   975
 C        -0.219098        -0.006703         0.011795
 C         1.283110        -0.024940         0.192348
 C         2.394378         1.165859         0.094024
 C         3.243267        -0.104993         0.117742
 C         2.322272        -0.733392        -1.019632
 O         4.550408        -0.136028         0.621492
 C         4.285701        -0.230801         2.093544
 O         2.944263        -0.342161         2.377928
 C         2.307508        -0.813979         1.177148
 H        -0.691639         0.604140         0.781940
 H        -0.370482         0.540319        -0.977190
 H        -0.727893        -1.066545         0.097206
 H         2.508467         1.816156        -0.762049
 H         2.355615         1.823886         1.039267
 H         2.191011        -0.329256        -1.964134
 H         2.271274        -1.811766        -1.047824
 H         4.992309        -1.095712         2.328977
 H         4.708486         0.637106         2.598870
 H         2.358371        -1.823704         1.125553
