19
Iteration:   105
 C        -0.211387         0.109058         0.063685
 C         1.326351        -0.113931         0.037229
 C         2.315750         1.118456         0.032393
 C         3.244078        -0.097008         0.190941
 C         2.398908        -0.787332        -0.964230
 O         4.552841        -0.063166         0.623477
 C         4.327898        -0.281361         2.162849
 O         2.872740        -0.292134         2.327070
 C         2.335051        -0.809424         1.151799
 H        -0.423008         0.851111         0.908615
 H        -0.846753         0.406402        -0.877244
 H        -0.658813        -0.858826         0.342532
 H         2.481505         1.614877        -0.948494
 H         2.183597         1.650216         0.940919
 H         2.442429        -0.248114        -1.891049
 H         2.371222        -1.914609        -1.013730
 H         4.667505        -1.377825         2.348078
 H         4.650184         0.465503         2.917292
 H         2.400247        -1.903098         1.177783
