19
Iteration:  1184
 C        -0.140744        -0.149909         0.024503
 C         1.374409         0.107868         0.052438
 C         2.383199         1.239385         0.180724
 C         3.218642        -0.125403         0.193698
 C         2.317608        -0.593319        -1.027426
 O         4.553266        -0.422566         0.632845
 C         4.309181        -0.128682         1.963504
 O         2.890341        -0.358776         2.434119
 C         2.259098        -0.720385         1.164588
 H        -0.536293        -0.044638         1.010763
 H        -0.716651         0.450949        -0.703094
 H        -0.313487        -1.176541        -0.152061
 H         2.631256         1.893676        -0.734957
 H         2.083430         1.784874         1.060088
 H         2.398191        -0.044744        -1.902632
 H         2.140930        -1.618231        -1.136074
 H         5.010756        -0.713710         2.572958
 H         4.315229         0.924163         2.205356
 H         2.150416        -1.859410         1.297786
