19
Iteration:  3985
 C        -0.145549        -0.014639        -0.082949
 C         1.384808        -0.034735         0.106733
 C         2.273849         1.141414         0.070871
 C         3.215768        -0.038747         0.168986
 C         2.341337        -0.816587        -0.965623
 O         4.556815        -0.112458         0.756584
 C         4.365581        -0.269610         2.096605
 O         2.811166        -0.277523         2.397779
 C         2.322128        -0.771730         1.101865
 H        -0.475185         0.712121         0.557907
 H        -0.379774         0.268744        -1.159570
 H        -0.589305        -0.958354         0.149744
 H         2.232575         1.670967        -0.903863
 H         2.117282         1.797582         0.956118
 H         2.384662        -0.504227        -2.017044
 H         2.499673        -2.002120        -0.951426
 H         4.976595        -1.158326         2.379681
 H         4.888835         0.613896         2.612333
 H         2.273575        -1.882284         1.168768
