19
Iteration:  1067charge 0 multiplicity 1
 C        -0.128371         0.004698         0.117030
 C         1.412032        -0.022165         0.105177
 C         2.324884         1.121552        -0.002673
 C         3.257233        -0.129927         0.083535
 C         2.238472        -0.742121        -1.078628
 O         4.481412        -0.002933         0.708262
 C         4.304291        -0.417687         2.181891
 O         2.910413        -0.274584         2.401150
 C         2.357615        -0.765372         1.105340
 H        -0.449216         0.409394         1.174047
 H        -0.591516         0.558242        -0.754140
 H        -0.585796        -0.943331         0.235488
 H         2.317091         1.732054        -0.960424
 H         2.437657         1.747086         0.846445
 H         2.278727        -0.166050        -2.120839
 H         2.006825        -1.901950        -1.148571
 H         4.879747        -1.376427         2.224841
 H         4.789170         0.288111         2.894315
 H         2.369640        -1.829929         0.934080
