19
Iteration:  2188charge 0 multiplicity 1
 C        -0.116185         0.105325        -0.019006
 C         1.355751        -0.015372         0.156256
 C         2.401288         1.098114         0.215136
 C         3.207396        -0.271465         0.115719
 C         2.396722        -0.791208        -0.971025
 O         4.513166        -0.234055         0.680814
 C         4.235048        -0.006585         1.993133
 O         2.869090        -0.292999         2.287392
 C         2.270479        -0.878370         1.182684
 H        -0.480584         0.675194         0.954570
 H        -0.319380         0.710866        -0.910507
 H        -0.634028        -0.864974         0.039803
 H         2.457906         1.697441        -0.625240
 H         2.447170         1.656217         1.109900
 H         2.283671        -0.231374        -1.873779
 H         2.181917        -1.876363        -1.049140
 H         4.994738        -0.621149         2.643557
 H         4.450829         1.023897         2.261173
 H         2.408541        -1.973023         1.095163
