19
Iteration:   114charge 0 multiplicity 1
 C        -0.145500         0.096125         0.093757
 C         1.395765        -0.090629         0.029843
 C         2.252870         1.088392         0.113748
 C         3.272957        -0.118133         0.115480
 C         2.364273        -0.792212        -0.956632
 O         4.561923        -0.118205         0.651520
 C         4.218936        -0.225791         2.089984
 O         2.812816        -0.294884         2.385313
 C         2.429404        -0.802504         1.105705
 H        -0.378986         0.837150         0.766782
 H        -0.481434         0.582409        -0.957916
 H        -0.739495        -0.740493         0.495793
 H         2.206256         1.815459        -0.752827
 H         2.175471         1.770448         1.010206
 H         2.446061        -0.444809        -2.019541
 H         2.268547        -1.912872        -1.022160
 H         4.715956        -1.203861         2.321228
 H         4.775549         0.577382         2.625916
 H         2.466890        -1.877933         1.053983
