19
Iteration:   304
 C        -0.114873        -0.265376         0.076502
 C         1.348580        -0.030461         0.024975
 C         2.400069         1.230103         0.027935
 C         3.240996        -0.108026         0.150190
 C         2.279677        -0.701504        -1.013872
 O         4.540337        -0.127279         0.686652
 C         4.269878        -0.482456         2.069321
 O         2.901869        -0.127981         2.424408
 C         2.272955        -0.577412         1.170880
 H        -0.577573         0.680446         0.606836
 H        -0.402945        -0.042431        -0.916763
 H        -0.491975        -1.214418         0.440242
 H         2.546365         1.734975        -0.847968
 H         2.490124         1.848396         0.879568
 H         2.389256        -0.150006        -1.890543
 H         2.283923        -1.721867        -1.154613
 H         4.297475        -1.632947         2.094666
 H         4.958895         0.025052         2.763299
 H         1.979754        -1.552623         1.392755
