19
Iteration:    66charge 0 multiplicity 1
 C        -0.062841        -0.110844        -0.020140
 C         1.378046        -0.004646         0.080380
 C         2.339828         1.209832         0.008672
 C         3.205399        -0.051146         0.121950
 C         2.254982        -0.788734        -0.871924
 O         4.561784        -0.041993         0.600780
 C         4.239459        -0.550167         2.106234
 O         2.867463        -0.164476         2.411795
 C         2.352067        -0.656927         1.225182
 H        -0.645291         0.250732         0.857528
 H        -0.411141         0.260051        -0.876770
 H        -0.227312        -1.184884         0.062990
 H         2.355846         1.792105        -0.924034
 H         2.341338         1.859020         0.909267
 H         2.243462        -0.358923        -1.879700
 H         2.246295        -1.876093        -0.900409
 H         4.360934        -1.567408         2.109810
 H         4.934341         0.005263         2.688101
 H         2.365462        -1.771241         1.163030
