19
Iteration:   737
 C        -0.105354        -0.204777         0.123113
 C         1.390365         0.006026         0.125537
 C         2.404042         1.211164         0.182641
 C         3.218542        -0.068123         0.074756
 C         2.350731        -0.765073        -1.047565
 O         4.504687        -0.204632         0.632139
 C         4.231453        -0.433485         2.037754
 O         2.849524        -0.086255         2.354043
 C         2.307705        -0.594725         1.137780
 H        -0.669759         0.294359         0.916451
 H        -0.519098         0.159748        -0.874533
 H        -0.359989        -1.210710         0.225316
 H         2.425383         1.822909        -0.630089
 H         2.341456         1.750116         1.126119
 H         2.545534        -0.387406        -2.050050
 H         2.459808        -1.921461        -1.000889
 H         4.235903        -1.509088         2.245990
 H         4.898206         0.169338         2.621734
 H         2.318643        -1.654156         1.243376
