19
Iteration:    30charge 0 multiplicity 1
 C        -0.190891        -0.158099         0.002418
 C         1.356235         0.008120         0.065904
 C         2.265372         1.165792         0.094398
 C         3.160695        -0.136675         0.170196
 C         2.396985        -0.693129        -1.021782
 O         4.553774        -0.220619         0.648974
 C         4.314597        -0.480280         2.057205
 O         2.919462        -0.038081         2.403473
 C         2.312141        -0.656467         1.203464
 H        -0.727819         0.393902         0.938630
 H        -0.700978         0.272862        -0.861653
 H        -0.324364        -1.206516        -0.170980
 H         2.315777         1.909167        -0.749636
 H         2.375838         1.775608         0.980729
 H         2.552014        -0.098598        -1.892351
 H         2.543116        -1.779005        -1.287581
 H         4.524289        -1.455925         2.529099
 H         5.006793         0.185641         2.637332
 H         2.394983        -1.781984         1.389347
