19
Iteration:  2871charge 0 multiplicity 1
 C        -0.150159        -0.019298        -0.015750
 C         1.359372        -0.018684         0.024536
 C         2.388056         1.137600         0.137802
 C         3.208034        -0.177145         0.180024
 C         2.331414        -0.712751        -1.084641
 O         4.547099        -0.193123         0.695955
 C         4.280234        -0.095473         2.188932
 O         2.867891        -0.319399         2.366167
 C         2.346408        -0.838452         1.150540
 H        -0.617618         0.482034         0.810302
 H        -0.535597         0.423379        -0.950456
 H        -0.608082        -1.087348         0.046485
 H         2.548315         1.611516        -0.824282
 H         2.456151         1.798496         0.974088
 H         2.319914        -0.145621        -2.048572
 H         2.276878        -1.811851        -1.182668
 H         4.953760        -0.754683         2.747571
 H         4.371316         0.970565         2.445542
 H         1.952894        -1.941737         1.226467
