19
Iteration:  3923charge 0 multiplicity 1
 C        -0.110148        -0.056609         0.019882
 C         1.356207        -0.034752         0.097386
 C         2.350520         1.198642         0.179230
 C         3.273988        -0.185128         0.156899
 C         2.382816        -0.692183        -1.030823
 O         4.542521        -0.417098         0.708428
 C         4.191528         0.064816         2.072325
 O         2.856292        -0.287612         2.352765
 C         2.355355        -0.817558         1.074333
 H        -0.630631         0.453841         0.875684
 H        -0.583042         0.534766        -0.830857
 H        -0.491556        -1.177248         0.001358
 H         2.457367         1.930148        -0.614738
 H         2.214442         1.645093         1.162785
 H         2.463170        -0.144343        -2.038627
 H         2.499431        -1.763178        -1.275960
 H         4.692117        -0.525780         2.844831
 H         4.069609         1.131926         2.134407
 H         2.244064        -1.890082         1.145854
