19
Iteration:   154charge 0 multiplicity 1
 C        -0.199130        -0.013627         0.035358
 C         1.356741        -0.013528         0.048830
 C         2.414519         1.094801         0.175976
 C         3.245595        -0.286085         0.158838
 C         2.326490        -0.600096        -1.000165
 O         4.560948        -0.269523         0.666804
 C         4.242043        -0.026888         2.033230
 O         2.861447        -0.304990         2.404014
 C         2.330870        -0.852266         1.084009
 H        -0.617525         0.491754         1.012156
 H        -0.604324         0.532948        -0.780427
 H        -0.543797        -1.090740         0.106827
 H         2.623242         1.701997        -0.707696
 H         2.462617         1.763333         1.121465
 H         2.608227        -0.100379        -1.997132
 H         2.142992        -1.625663        -1.254330
 H         4.838552        -0.560035         2.727783
 H         4.352084         1.059669         2.173696
 H         2.289218        -1.960072         1.244702
