19
Iteration:  2986
 C        -0.169909        -0.135755        -0.029203
 C         1.365219        -0.075336         0.058235
 C         2.349117         1.202077         0.080069
 C         3.251318        -0.113946         0.168757
 C         2.354433        -0.678760        -0.966879
 O         4.572146        -0.211126         0.661681
 C         4.254978        -0.268834         2.117795
 O         2.852487        -0.149546         2.392346
 C         2.277238        -0.777448         1.158416
 H        -0.453877         0.234710         0.962695
 H        -0.151343         0.651957        -0.771253
 H        -0.393905        -1.129372        -0.341507
 H         2.391019         1.764523        -0.878035
 H         2.346525         1.859350         0.996991
 H         2.360374        -0.240713        -1.991300
 H         2.344725        -1.828391        -1.118989
 H         4.560395        -1.319732         2.427271
 H         4.791333         0.520291         2.711603
 H         2.134437        -1.903054         1.307024
