19
Iteration:  2765charge 0 multiplicity 1
 C        -0.168125         0.034144         0.038539
 C         1.334243        -0.049086         0.036698
 C         2.372420         1.156472         0.085895
 C         3.250063        -0.121919         0.136980
 C         2.393847        -0.762927        -0.989703
 O         4.536013        -0.196617         0.688265
 C         4.263569        -0.037685         2.156419
 O         2.805687        -0.371428         2.312505
 C         2.364104        -0.870183         1.145706
 H        -0.389382         0.728873         0.913572
 H        -0.486925         0.537092        -0.856597
 H        -0.678949        -0.913513         0.134388
 H         2.603374         1.910710        -0.648539
 H         2.274221         1.636386         1.033127
 H         2.480651        -0.617958        -2.121381
 H         2.522507        -1.805960        -0.797045
 H         4.769288        -0.865415         2.713337
 H         4.478558         0.931601         2.604542
 H         2.150737        -1.985855         0.896299
