19
Iteration:  2459charge 0 multiplicity 1
 C        -0.083541        -0.051020         0.052011
 C         1.385234        -0.093126         0.034328
 C         2.440669         1.172566         0.092811
 C         3.278680        -0.166975         0.149013
 C         2.253427        -0.779599        -1.019483
 O         4.548495        -0.137830         0.632209
 C         4.249981        -0.196846         2.158742
 O         2.811889        -0.235773         2.415458
 C         2.230789        -0.785441         1.121508
 H        -0.329281         0.455231         0.980999
 H        -0.469082         0.594489        -0.679822
 H        -0.582703        -0.994125        -0.098676
 H         2.364796         1.910661        -0.781581
 H         2.539314         1.830406         0.980741
 H         2.401951        -0.396490        -2.006212
 H         2.284948        -1.877827        -1.056441
 H         4.844162        -1.026399         2.516422
 H         4.778139         0.794582         2.331050
 H         2.249235        -1.850845         1.198230
