19
Iteration:  3590charge 0 multiplicity 1
 C        -0.096977         0.072161        -0.010523
 C         1.364490        -0.077367         0.104686
 C         2.266993         1.143681         0.085530
 C         3.285101        -0.141138         0.174261
 C         2.415845        -0.779619        -0.992747
 O         4.529563        -0.192024         0.658436
 C         4.263413        -0.001027         2.153003
 O         2.803720        -0.382569         2.388517
 C         2.313829        -0.899250         1.102510
 H        -0.282522         0.938333         0.596734
 H        -0.502653         0.418602        -0.942895
 H        -0.504180        -0.847072         0.274435
 H         2.291105         1.681861        -0.870428
 H         2.245406         1.721400         1.007299
 H         2.352660        -0.260935        -1.959364
 H         2.522488        -1.870530        -1.080065
 H         5.055584        -0.702247         2.551442
 H         4.462478         1.032298         2.550243
 H         2.186654        -2.077906         0.937520
