19
Iteration:   948
 C        -0.056213         0.174566         0.106858
 C         1.341061        -0.112959         0.027461
 C         2.296899         1.132302         0.148166
 C         3.223678        -0.132680         0.162053
 C         2.304910        -0.789310        -0.966454
 O         4.529333        -0.096906         0.634016
 C         4.282484        -0.111609         2.001922
 O         2.830835        -0.407611         2.359955
 C         2.345675        -0.917273         1.169396
 H        -0.220559         0.878574         0.961628
 H        -0.330644         0.539111        -0.849353
 H        -0.618133        -0.699338         0.345629
 H         2.339489         1.880747        -0.687000
 H         2.120508         1.592168         1.081661
 H         2.501912        -0.367029        -2.035835
 H         2.463292        -1.916816        -0.946968
 H         5.016709        -0.858589         2.221325
 H         4.583717         0.856142         2.500003
 H         2.428141        -2.096940         0.925371
