19
Iteration:  3723charge 0 multiplicity 1
 C        -0.107004         0.016260        -0.010548
 C         1.430335        -0.123946         0.122165
 C         2.285511         1.153706        -0.001869
 C         3.249883        -0.146967         0.156254
 C         2.381499        -0.819176        -0.943616
 O         4.548779         0.012165         0.729396
 C         4.226304        -0.318570         2.090540
 O         2.770753        -0.201242         2.361689
 C         2.395562        -0.828630         1.129244
 H        -0.385096         0.274352         1.060875
 H        -0.294348         0.854837        -0.840805
 H        -0.726547        -0.869136        -0.251470
 H         2.181957         1.705108        -0.932858
 H         2.412174         1.811098         0.872389
 H         2.254705        -0.423685        -1.948606
 H         2.179155        -1.914826        -1.216086
 H         4.605193        -1.314247         2.490246
 H         4.772742         0.373250         2.798744
 H         2.456767        -1.997540         1.220312
