19
Iteration:   210charge 0 multiplicity 1
 C        -0.152896         0.057072        -0.050077
 C         1.350576        -0.065433         0.146197
 C         2.361713         1.111333         0.186325
 C         3.257781        -0.195135         0.113153
 C         2.298407        -0.734798        -0.982556
 O         4.616703        -0.261197         0.594346
 C         4.273830         0.007092         2.047915
 O         2.811706        -0.361967         2.423199
 C         2.352784        -0.806652         1.188954
 H        -0.714495         0.138183         0.902900
 H        -0.448294         0.924281        -0.738599
 H        -0.546584        -0.909736        -0.494933
 H         2.402206         1.718550        -0.788301
 H         2.398144         1.744114         1.181378
 H         2.147118        -0.050748        -1.923010
 H         2.415775        -1.852474        -1.038640
 H         4.808991        -0.709989         2.586868
 H         4.553588         1.061736         2.267981
 H         2.140671        -1.926893         1.180566
