19
Iteration:  1309charge 0 multiplicity 1
 C        -0.088792        -0.134926         0.033012
 C         1.412005         0.036971         0.128481
 C         2.385819         1.228608         0.202858
 C         3.194831        -0.160533         0.116248
 C         2.365152        -0.637901        -0.972262
 O         4.466362        -0.422695         0.625894
 C         4.319968        -0.107805         2.074961
 O         2.904988        -0.290632         2.300773
 C         2.205559        -0.709412         1.116882
 H        -0.607823         0.398833         0.912991
 H        -0.562733         0.274235        -0.853084
 H        -0.319022        -1.250123         0.008000
 H         2.451056         1.978413        -0.539659
 H         2.447887         1.765976         1.196460
 H         2.447473         0.018329        -1.863864
 H         2.124424        -1.652253        -1.095765
 H         4.916153        -0.822911         2.658509
 H         4.537483         0.970950         2.349863
 H         2.004182        -1.799652         1.206281
