19
Iteration:   289charge 0 multiplicity 1
 C        -0.149497        -0.120151         0.056577
 C         1.389228         0.058976         0.027491
 C         2.359951         1.157256        -0.032613
 C         3.218142        -0.077516         0.157080
 C         2.330306        -0.701533        -0.965180
 O         4.558839        -0.092491         0.721862
 C         4.261245        -0.528925         2.095059
 O         2.898761        -0.136460         2.398314
 C         2.287053        -0.679670         1.173534
 H        -0.596178         0.465201         0.769726
 H        -0.873490        -0.484306        -0.782513
 H        -0.044345        -1.101962         0.517541
 H         2.407852         1.763101        -1.078943
 H         2.179190         1.872542         0.805875
 H         2.327311        -0.285066        -2.020010
 H         2.079132        -1.879346        -1.051933
 H         4.471304        -1.555602         2.159750
 H         4.908007         0.064913         2.721958
 H         2.380368        -1.821680         1.109617
