19
Iteration:  3401charge 0 multiplicity 1
 C        -0.119296        -0.147315         0.085136
 C         1.374654        -0.048988         0.064190
 C         2.310338         1.188270         0.076533
 C         3.246887        -0.129471         0.172802
 C         2.385084        -0.708809        -1.028885
 O         4.593322        -0.110094         0.657940
 C         4.220531        -0.352979         2.133929
 O         2.848740        -0.149841         2.354904
 C         2.226883        -0.755160         1.111286
 H        -0.453674         0.804558         0.640489
 H        -0.458909         0.082098        -0.951478
 H        -0.342238        -1.115391         0.313343
 H         2.576018         1.582946        -0.904349
 H         2.452157         1.963278         0.852877
 H         2.328228        -0.311826        -2.032647
 H         2.581113        -1.784376        -0.981855
 H         4.359712        -1.390112         2.522460
 H         4.767463         0.381567         2.894682
 H         2.287768        -1.933759         1.273406
