19
Iteration:   465charge 0 multiplicity 1
 C        -0.096121        -0.047793         0.055047
 C         1.389723        -0.087110         0.098704
 C         2.401617         1.174919         0.157806
 C         3.209931        -0.102659         0.116615
 C         2.286969        -0.733185        -0.969426
 O         4.495050        -0.262286         0.640988
 C         4.238022        -0.151816         2.090560
 O         2.878566        -0.234309         2.327699
 C         2.321068        -0.791602         1.101015
 H        -0.468335         0.656995         0.779805
 H        -0.538950         0.363195        -0.889932
 H        -0.498546        -0.949532         0.434614
 H         2.510780         1.847760        -0.765307
 H         2.440766         1.750136         1.111948
 H         2.342202        -0.315181        -1.987789
 H         2.483554        -1.882017        -0.882522
 H         4.759766        -0.930635         2.627362
 H         4.565561         0.887531         2.354380
 H         2.322658        -1.957074         1.124281
