19
Iteration:  4339charge 0 multiplicity 1
 C        -0.086598        -0.082424         0.019311
 C         1.353188        -0.072806         0.116310
 C         2.311925         1.104850         0.088273
 C         3.251440        -0.091945         0.145164
 C         2.424140        -0.759039        -1.001239
 O         4.541439        -0.167580         0.657026
 C         4.241410        -0.313086         2.144369
 O         2.806165        -0.150964         2.378961
 C         2.319398        -0.693643         1.139094
 H        -0.561055         0.857082         0.468451
 H        -0.289474         0.009691        -1.059129
 H        -0.842198        -0.898998         0.208933
 H         2.255018         1.784098        -0.775889
 H         2.304122         1.609069         1.014894
 H         2.596118        -0.383335        -2.064564
 H         2.476400        -1.812290        -1.015146
 H         4.751375        -1.243975         2.345894
 H         4.718114         0.556275         2.537115
 H         2.164966        -1.820719         1.166573
