19
Iteration:  2168charge 0 multiplicity 1
 C        -0.087523         0.038860         0.038736
 C         1.344325        -0.143122         0.038472
 C         2.385843         1.147188         0.162890
 C         3.202478        -0.156248         0.166743
 C         2.296414        -0.698711        -1.075845
 O         4.602290        -0.431430         0.589417
 C         4.256297         0.016765         2.059605
 O         2.812143        -0.271918         2.472410
 C         2.316127        -0.748339         1.146453
 H        -0.520570         0.413914         0.997083
 H        -0.278899         0.725081        -0.784394
 H        -0.559952        -0.911774        -0.019899
 H         2.430183         1.781856        -0.705244
 H         2.207345         1.666576         1.061114
 H         2.367865        -0.124557        -1.990104
 H         2.395028        -1.780178        -1.140427
 H         5.004805        -0.571316         2.769571
 H         4.510762         1.038432         2.283094
 H         2.158842        -1.816240         1.307304
