19
Iteration:  2656
 C        -0.255901         0.012308        -0.012162
 C         1.432223        -0.129314         0.043645
 C         2.404152         1.162449         0.042782
 C         3.262124        -0.042422         0.152471
 C         2.322951        -0.781407        -1.004589
 O         4.547097        -0.235563         0.697158
 C         4.267129        -0.150812         2.165112
 O         2.869162        -0.275722         2.413046
 C         2.275261        -0.796238         1.156549
 H        -0.695767         0.331645         1.006235
 H        -0.554946         0.740628        -0.772265
 H        -0.600774        -1.029812        -0.283928
 H         2.480865         1.683167        -0.901960
 H         2.392572         1.736762         0.940933
 H         2.278179        -0.127766        -1.883736
 H         2.514365        -1.778323        -1.241507
 H         4.940653        -0.922316         2.542516
 H         4.597368         0.796830         2.462386
 H         2.405673        -1.891016         1.061046
