19
Iteration:  2006
 C        -0.094800        -0.142275         0.026002
 C         1.400456        -0.029846         0.080305
 C         2.291278         1.214398         0.028562
 C         3.286383        -0.105748         0.143860
 C         2.302403        -0.698803        -0.985741
 O         4.548338        -0.257633         0.642603
 C         4.230478        -0.386371         2.147686
 O         2.921663        -0.092946         2.343990
 C         2.255866        -0.681986         1.232647
 H        -0.401411         0.361873         0.980179
 H        -0.522330         0.522639        -0.780556
 H        -0.536057        -1.165798         0.056201
 H         2.253960         1.724897        -1.018688
 H         2.282836         1.897106         0.873101
 H         2.378440        -0.291088        -1.981283
 H         2.291265        -1.832305        -1.030545
 H         4.349085        -1.371036         2.345497
 H         4.989912         0.171279         2.682351
 H         2.246905        -1.775207         1.222303
