19
Iteration:   980
 C        -0.268289        -0.038744         0.012049
 C         1.302423        -0.032799         0.163601
 C         2.402544         1.182523         0.086486
 C         3.229917        -0.106403         0.149248
 C         2.267020        -0.685903        -0.985738
 O         4.551425        -0.169989         0.637115
 C         4.337965        -0.238723         2.060725
 O         2.937804        -0.309479         2.399033
 C         2.329376        -0.807474         1.149387
 H        -0.865010         0.583877         0.729947
 H        -0.457481         0.482888        -0.919634
 H        -0.569138        -1.033069        -0.002178
 H         2.550797         1.789398        -0.842795
 H         2.471541         1.833054         0.937347
 H         2.333682        -0.195743        -2.060781
 H         2.425556        -1.847701        -1.133030
 H         4.857584        -1.153477         2.357051
 H         4.664195         0.603009         2.727087
 H         2.462981        -2.002609         1.216544
