19
Iteration:   876
 C        -0.155606        -0.136238         0.120616
 C         1.378704         0.068947         0.116624
 C         2.439791         1.221409         0.191587
 C         3.215076        -0.165781         0.098356
 C         2.375137        -0.650677        -1.045962
 O         4.515091        -0.415758         0.643341
 C         4.236966        -0.026865         2.011727
 O         2.886003        -0.336494         2.369430
 C         2.257441        -0.714487         1.140428
 H        -0.626561        -0.096982         1.075680
 H        -0.598004         0.429176        -0.727986
 H        -0.268104        -1.258879        -0.239963
 H         2.670012         1.996658        -0.587280
 H         2.473870         1.628569         1.281213
 H         2.349523        -0.165914        -1.993183
 H         2.157521        -1.699553        -1.091795
 H         4.872562        -0.599627         2.747342
 H         4.399479         1.038726         1.944879
 H         2.097090        -1.741347         1.000102
