19
Iteration:   236charge 0 multiplicity 1
 C        -0.137230         0.061985         0.048757
 C         1.346582        -0.085565         0.003500
 C         2.317108         1.131715         0.166024
 C         3.195447        -0.236731         0.192761
 C         2.335002        -0.787955        -1.081314
 O         4.495833        -0.076973         0.670147
 C         4.307289        -0.162557         2.151423
 O         2.918123        -0.218166         2.343865
 C         2.351524        -0.930379         1.156191
 H        -0.377596         0.620076         0.932773
 H        -0.270479         0.849874        -0.872439
 H        -0.819990        -0.754770        -0.114292
 H         2.367930         1.659835        -0.860317
 H         2.285647         1.745181         1.040388
 H         2.544044        -0.198301        -1.954565
 H         2.110253        -1.928595        -1.079308
 H         4.756166        -1.192532         2.423811
 H         4.829347         0.689255         2.589690
 H         2.276694        -1.996436         1.236318
