19
Iteration:  3043
 C        -0.062530         0.017416        -0.028757
 C         1.370406        -0.064816         0.056825
 C         2.350174         1.091978         0.068596
 C         3.225641        -0.088782         0.135321
 C         2.332063        -0.797802        -0.921746
 O         4.515702        -0.041991         0.686649
 C         4.235525        -0.257447         2.092343
 O         2.809405        -0.265173         2.392037
 C         2.355668        -0.811258         1.187501
 H        -0.586326         0.576427         0.734400
 H        -0.331297         0.323375        -1.038275
 H        -0.475317        -0.944415         0.040753
 H         2.382067         1.727021        -0.903001
 H         2.463440         1.877269         0.853657
 H         2.349230        -0.240691        -1.803241
 H         2.311890        -1.957134        -0.954260
 H         4.578905        -1.350227         2.200593
 H         4.844554         0.402042         2.754861
 H         2.488150        -1.906228         0.993110
