19
Iteration:  1731charge 0 multiplicity 1
 C        -0.251703        -0.109739         0.099731
 C         1.337628         0.016101         0.072050
 C         2.395952         1.190597         0.006198
 C         3.307823        -0.075257         0.096544
 C         2.406692        -0.740520        -0.973770
 O         4.585166        -0.269184         0.593185
 C         4.188228        -0.372648         2.187235
 O         2.864011        -0.155108         2.413645
 C         2.274200        -0.667738         1.096140
 H        -0.570549         0.654488         0.877411
 H        -0.874817         0.239971        -0.691756
 H        -0.420274        -1.107476         0.358978
 H         2.367903         1.602108        -0.958338
 H         2.382763         1.907357         0.851899
 H         2.607516        -0.180715        -1.885507
 H         2.532777        -1.773330        -0.959512
 H         4.597046        -1.406188         2.455314
 H         4.875694         0.369086         2.718552
 H         2.322919        -1.743976         1.323124
