19
Iteration:  2096
 C        -0.125539         0.079471         0.072172
 C         1.388428        -0.053870         0.092301
 C         2.331381         1.077552         0.103089
 C         3.210225        -0.178018         0.160229
 C         2.300639        -0.790181        -1.051640
 O         4.550018        -0.187295         0.645741
 C         4.326744        -0.193275         2.168806
 O         2.871696        -0.198646         2.329386
 C         2.262527        -0.809748         1.123787
 H        -0.594685         0.666384         0.875135
 H        -0.440842         0.563572        -0.921197
 H        -0.658228        -0.955092         0.183727
 H         2.590133         1.538042        -0.932501
 H         2.318367         1.692230         1.047935
 H         2.378159        -0.182104        -2.024941
 H         2.258415        -1.889455        -1.076047
 H         4.760214        -0.999916         2.636251
 H         4.767198         0.758096         2.653663
 H         2.454157        -1.941955         1.143070
