19
Iteration:   637charge 0 multiplicity 1
 C        -0.164760         0.140085         0.085830
 C         1.397248        -0.076299         0.122454
 C         2.367685         1.056685         0.126404
 C         3.225704        -0.275638         0.128580
 C         2.273659        -0.672607        -1.163255
 O         4.592759        -0.323406         0.702547
 C         4.160790         0.189324         2.032863
 O         2.944257        -0.462091         2.450319
 C         2.384379        -0.869611         1.147516
 H        -0.484787         0.736002         0.937154
 H        -0.586730         0.597778        -0.910215
 H        -0.771969        -0.824246         0.023379
 H         2.433668         1.743061        -0.710681
 H         2.410259         1.624662         1.013261
 H         2.368311         0.019469        -2.107050
 H         1.943124        -1.732764        -1.377116
 H         4.948117        -0.231260         2.757716
 H         4.038218         1.293299         2.164352
 H         2.296665        -1.923801         1.217395
