19
Iteration:  1385charge 0 multiplicity 1
 C        -0.178027         0.096843         0.140512
 C         1.365723        -0.093785         0.030382
 C         2.331855         1.113260         0.024190
 C         3.245057        -0.111609         0.134831
 C         2.428831        -0.861995        -0.953715
 O         4.573595        -0.012401         0.571006
 C         4.261215        -0.353000         2.031605
 O         2.807989        -0.337418         2.492504
 C         2.297631        -0.693426         1.135699
 H        -0.393939         0.693082         1.036655
 H        -0.445934         0.724901        -0.677254
 H        -0.832027        -0.711694        -0.024295
 H         2.356297         1.651416        -0.934917
 H         2.297036         1.822509         0.930881
 H         2.665309        -0.392490        -1.918584
 H         2.476377        -1.893768        -0.902085
 H         4.702361        -1.289467         2.329368
 H         4.733127         0.372644         2.687989
 H         2.221574        -1.875996         1.146782
