19
Iteration:  2130
 C        -0.114721        -0.075317         0.110757
 C         1.373688         0.036590         0.112429
 C         2.514809         1.171983         0.117901
 C         3.218026        -0.145191         0.114816
 C         2.326341        -0.744978        -0.971907
 O         4.526753        -0.342664         0.587875
 C         4.245231        -0.071421         2.123095
 O         2.804785        -0.276608         2.361254
 C         2.232935        -0.731412         1.122033
 H        -0.626757         0.223129         1.050458
 H        -0.546548         0.550665        -0.723962
 H        -0.349524        -1.164163        -0.183043
 H         2.697810         1.711729        -0.839032
 H         2.516616         1.895990         0.975948
 H         2.365334        -0.398028        -2.045149
 H         2.317521        -1.852021        -0.971500
 H         4.794724        -0.815183         2.622546
 H         4.547452         0.972258         2.381496
 H         2.333364        -1.844852         1.010513
