19
Iteration:   179charge 0 multiplicity 1
 C        -0.094881        -0.063144        -0.011110
 C         1.373623         0.046132         0.085524
 C         2.398607         1.156504         0.170808
 C         3.199973        -0.154785         0.140490
 C         2.351078        -0.674314        -0.975798
 O         4.460117        -0.435481         0.714689
 C         4.252562         0.118675         1.974976
 O         2.951806        -0.461505         2.379651
 C         2.278056        -0.725235         1.164782
 H        -0.523641        -0.004085         0.932728
 H        -0.612106         0.798496        -0.672647
 H        -0.332533        -1.104571        -0.356728
 H         2.485925         1.882783        -0.744144
 H         2.344390         1.814191         1.125666
 H         2.185409        -0.096170        -1.964532
 H         2.447874        -1.774304        -1.279568
 H         4.864232        -0.401487         2.685550
 H         4.333390         1.214954         2.121016
 H         2.025436        -1.782855         1.264326
