19
Iteration:  2297
 C        -0.064839        -0.061653         0.047202
 C         1.387813         0.001357         0.134240
 C         2.338481         1.114820         0.138697
 C         3.256709        -0.189730         0.086918
 C         2.266233        -0.727119        -1.004550
 O         4.581994        -0.298218         0.684784
 C         4.249140        -0.151704         2.082022
 O         2.838014        -0.173232         2.296946
 C         2.299594        -0.760995         1.175877
 H        -0.623945         0.400327         0.952320
 H        -0.378681         0.554139        -0.809942
 H        -0.392127        -1.063477        -0.169094
 H         2.338727         1.638705        -0.789858
 H         2.444355         1.755038         0.972873
 H         2.451230        -0.025850        -1.816081
 H         2.220041        -1.775256        -1.417012
 H         4.625769        -0.935936         2.741874
 H         4.503741         0.794756         2.447301
 H         2.209392        -1.844076         1.467255
