19
Iteration:   411charge 0 multiplicity 1
 C        -0.097355         0.069948         0.139706
 C         1.427735        -0.043192         0.127693
 C         2.389924         1.087239         0.129448
 C         3.307776        -0.231526         0.068583
 C         2.312452        -0.723367        -1.029265
 O         4.473267        -0.336501         0.726750
 C         4.163365         0.144748         2.016298
 O         2.847817        -0.439574         2.372428
 C         2.377844        -0.784980         1.075282
 H        -0.450341         0.548353         1.106124
 H        -0.354832         0.744545        -0.728029
 H        -0.637387        -0.825181         0.001801
 H         2.547609         1.857065        -0.762124
 H         2.312220         1.518821         1.145826
 H         2.264923        -0.259059        -2.031467
 H         2.055898        -1.921698        -1.017383
 H         4.911993        -0.109328         2.706520
 H         4.134054         1.214706         1.870886
 H         2.413762        -1.936496         1.003970
