19
Iteration:  1819
 C        -0.095472         0.070867         0.019722
 C         1.313376        -0.011162        -0.027383
 C         2.310942         1.176910         0.089784
 C         3.224654        -0.217016         0.175311
 C         2.329826        -0.781107        -0.977972
 O         4.543632        -0.287125         0.607442
 C         4.311000        -0.060749         2.121303
 O         2.915561        -0.334781         2.404365
 C         2.256748        -0.792965         1.201619
 H        -0.459125         0.428843         1.047584
 H        -0.310314         0.911391        -0.656848
 H        -0.554076        -0.887023        -0.141224
 H         2.548013         1.700293        -0.845363
 H         2.092550         1.725614         0.996236
 H         2.561900        -0.289157        -1.931074
 H         2.267952        -1.862031        -0.998176
 H         4.970078        -0.877046         2.674040
 H         4.575878         0.975647         2.505269
 H         2.061435        -1.844133         1.143178
