19
Iteration:  2380charge 0 multiplicity 1
 C        -0.174232        -0.024353        -0.029416
 C         1.355400        -0.060348         0.140768
 C         2.359889         1.128942         0.117112
 C         3.253267        -0.170358         0.080878
 C         2.339098        -0.785403        -0.981227
 O         4.527894        -0.174978         0.685894
 C         4.293070        -0.167413         2.176302
 O         2.887673        -0.206360         2.290236
 C         2.309842        -0.770382         1.152771
 H        -0.572814         0.649519         0.668908
 H        -0.412500         0.374050        -1.036193
 H        -0.748359        -0.959838         0.270888
 H         2.669266         1.766175        -0.711878
 H         2.284704         1.619556         1.138039
 H         2.190767        -0.279686        -1.902371
 H         2.098940        -1.824307        -1.042150
 H         4.686024        -1.160363         2.452546
 H         4.999540         0.612535         2.593853
 H         2.235263        -1.844387         1.275220
