19
Iteration:  3201charge 0 multiplicity 1
 C        -0.165042        -0.008708        -0.039606
 C         1.378091        -0.106931         0.053503
 C         2.360515         1.124084         0.192259
 C         3.226414        -0.210073         0.157112
 C         2.347997        -0.728913        -1.073651
 O         4.558865        -0.222705         0.729679
 C         4.258555         0.036632         2.077446
 O         2.853922        -0.349904         2.386226
 C         2.333387        -0.777906         1.108847
 H        -0.340386         0.547442         0.953137
 H        -0.416525         0.672964        -0.870145
 H        -0.776793        -0.952020        -0.018304
 H         2.519906         1.521145        -0.811291
 H         2.438711         1.561473         1.195994
 H         2.303185        -0.222175        -2.086879
 H         2.265358        -1.781915        -1.197678
 H         4.921088        -0.692712         2.652200
 H         4.390771         1.062467         2.538030
 H         2.126950        -1.842404         1.293225
