19
Iteration:  2378
 C        -0.171211        -0.018453        -0.034423
 C         1.359523        -0.074275         0.153648
 C         2.370723         1.122010         0.095717
 C         3.261196        -0.158062         0.090009
 C         2.330873        -0.777744        -0.972588
 O         4.523050        -0.169435         0.680543
 C         4.279354        -0.164481         2.164224
 O         2.890630        -0.227185         2.284747
 C         2.317415        -0.744958         1.170728
 H        -0.662761         0.658270         0.709613
 H        -0.379406         0.412280        -1.092096
 H        -0.774601        -0.969930         0.279647
 H         2.650971         1.717530        -0.727969
 H         2.283964         1.518762         1.106031
 H         2.161954        -0.240466        -1.928972
 H         2.134953        -1.829543        -1.024853
 H         4.677899        -1.193559         2.509784
 H         4.948118         0.592143         2.614419
 H         2.282186        -1.867067         1.312673
