19
Iteration:  2791charge 0 multiplicity 1
 C        -0.074301         0.045992        -0.001638
 C         1.390713        -0.101610         0.110628
 C         2.389401         1.082402         0.074854
 C         3.269812        -0.186053         0.164608
 C         2.320462        -0.701189        -1.106299
 O         4.559863        -0.202938         0.679632
 C         4.211295        -0.007917         2.099264
 O         2.808755        -0.297220         2.431025
 C         2.319138        -0.910063         1.198429
 H        -0.486201         0.468112         0.961785
 H        -0.451782         0.715119        -0.897430
 H        -0.428589        -1.010843        -0.129355
 H         2.328163         1.857844        -0.758047
 H         2.286746         1.665907         1.069427
 H         2.227483        -0.092391        -1.981455
 H         2.279590        -1.774108        -1.435994
 H         4.637729        -0.843437         2.592573
 H         4.534708         0.981698         2.522725
 H         2.173549        -1.973172         1.025516
