19
Iteration:  1506
 C        -0.183098         0.077874        -0.044580
 C         1.353349        -0.042124         0.129547
 C         2.387940         1.152248         0.144388
 C         3.252071        -0.170056         0.109969
 C         2.280624        -0.793971        -0.924708
 O         4.511460        -0.188789         0.683731
 C         4.307709        -0.187140         2.039179
 O         2.907056        -0.271711         2.350439
 C         2.336267        -0.818522         1.172675
 H        -0.731574         0.451660         0.810232
 H        -0.381704         0.641430        -0.933883
 H        -0.558312        -0.907818        -0.321107
 H         2.363079         1.714294        -0.860363
 H         2.497003         1.824438         1.036919
 H         2.107322        -0.319248        -1.956678
 H         2.260030        -1.878889        -1.039331
 H         4.915957        -0.998341         2.552660
 H         4.611030         0.806118         2.538444
 H         2.318717        -1.929641         1.324737
