19
Iteration:  1941charge 0 multiplicity 1
 C        -0.075100         0.044886         0.034101
 C         1.381082        -0.114838         0.096669
 C         2.519531         1.169771         0.004593
 C         3.170537        -0.151330         0.084384
 C         2.180468        -0.804139        -1.050565
 O         4.524094        -0.141983         0.754683
 C         4.264565        -0.133670         2.080881
 O         2.856822        -0.313116         2.394581
 C         2.357369        -0.806185         1.172316
 H        -0.266983         0.705975         0.910553
 H        -0.439621         0.780557        -0.743920
 H        -0.708109        -0.876688         0.112574
 H         2.388603         1.827535        -0.910241
 H         2.379346         1.724515         0.915622
 H         1.896361        -0.435365        -2.013487
 H         2.156735        -1.922910        -1.025863
 H         4.845947        -1.162560         2.487882
 H         4.647345         0.680668         2.749361
 H         2.341011        -1.838854         1.274182
