19
Iteration:   390charge 0 multiplicity 1
 C        -0.115865         0.111444         0.067632
 C         1.404383        -0.067279         0.078638
 C         2.426398         1.159237         0.137318
 C         3.203745        -0.171927         0.138376
 C         2.304752        -0.834939        -0.979780
 O         4.626756        -0.212593         0.637070
 C         4.200752         0.070441         2.066557
 O         2.863084        -0.435811         2.333711
 C         2.260662        -0.872153         1.162471
 H        -0.532816         0.365303         1.109295
 H        -0.415893         0.887486        -0.637490
 H        -0.619718        -0.768208        -0.195402
 H         2.327105         1.670038        -0.894736
 H         2.536759         1.792459         1.034213
 H         2.182636        -0.343736        -1.932276
 H         2.206721        -1.992692        -0.980343
 H         4.861900        -0.476060         2.656545
 H         4.224958         1.122981         2.325574
 H         2.093975        -1.974248         1.139308
