19
Iteration:   913
 C        -0.142397         0.018882         0.188789
 C         1.374086         0.009353         0.183666
 C         2.375222         1.096808         0.086905
 C         3.218527        -0.208118         0.081544
 C         2.349574        -0.658682        -1.089191
 O         4.636454        -0.281376         0.709047
 C         4.244765         0.013006         2.040243
 O         2.856232        -0.388395         2.342553
 C         2.281213        -0.851170         1.080720
 H        -0.583952         0.637467         0.993628
 H        -0.491535         0.568728        -0.709863
 H        -0.560196        -0.903403         0.105337
 H         2.314850         1.824228        -0.701398
 H         2.177430         1.574212         1.049504
 H         2.336932         0.001806        -2.007990
 H         2.129059        -1.793536        -1.370201
 H         4.847943        -0.633030         2.665797
 H         4.264490         1.089960         2.320395
 H         2.192815        -2.044903         1.170763
