19
Iteration:  4992charge 0 multiplicity 1
 C        -0.159332         0.025368        -0.004961
 C         1.387997        -0.041890         0.043071
 C         2.319714         1.105754         0.002439
 C         3.274401        -0.102137         0.148082
 C         2.340805        -0.746443        -1.042309
 O         4.565913        -0.201836         0.683315
 C         4.286541        -0.158432         2.151456
 O         2.828737        -0.299514         2.493221
 C         2.328492        -0.822472         1.150481
 H        -0.559190         0.415339         0.882840
 H        -0.374376         0.677771        -0.902180
 H        -0.672400        -0.957569        -0.226207
 H         2.506600         1.602009        -1.001149
 H         2.114499         1.779138         0.909946
 H         2.353936        -0.061916        -2.009354
 H         2.208407        -1.939194        -1.023050
 H         4.904671        -0.875555         2.733184
 H         4.426548         0.820241         2.425719
 H         2.350298        -1.901611         1.225651
