19
Iteration:   850charge 0 multiplicity 1
 C        -0.163201        -0.037340         0.009821
 C         1.364592        -0.062749         0.092997
 C         2.304630         1.141583         0.117594
 C         3.214311        -0.189517         0.161062
 C         2.321428        -0.573889        -0.977609
 O         4.558041        -0.330298         0.638427
 C         4.368167        -0.107169         2.083685
 O         2.906842        -0.245222         2.388400
 C         2.288430        -0.847277         1.168755
 H        -0.510467         0.252820         1.070452
 H        -0.468400         0.620438        -0.805755
 H        -0.629930        -1.044285        -0.240566
 H         2.313449         1.823343        -0.794478
 H         2.152553         1.740400         0.988323
 H         2.341193         0.079314        -1.884987
 H         2.124034        -1.612115        -1.248710
 H         4.859553        -0.944013         2.564926
 H         4.706186         0.963005         2.236307
 H         2.212379        -1.904312         1.027153
