19
Iteration:    16
 C        -0.089754        -0.127388         0.022813
 C         1.353853        -0.097601        -0.014916
 C         2.319767         1.171838         0.091237
 C         3.226121        -0.146820         0.177540
 C         2.367254        -0.625451        -1.045540
 O         4.494605        -0.244906         0.607830
 C         4.309116        -0.310919         2.129613
 O         2.940813        -0.110938         2.453036
 C         2.237247        -0.725883         1.216999
 H        -0.384769         0.325827         0.943090
 H        -0.553700         0.536075        -0.914285
 H        -0.588734        -1.142047         0.136324
 H         2.458570         1.629805        -0.881100
 H         2.123233         1.757283         1.011509
 H         2.409849         0.054944        -1.945148
 H         2.252241        -1.701710        -1.252680
 H         4.597702        -1.449309         2.225780
 H         4.936067         0.480382         2.612316
 H         2.016930        -1.788858         1.372670
