19
Iteration:  3451
 C        -0.169704         0.039771        -0.045221
 C         1.398815        -0.073912         0.091577
 C         2.316210         1.105732         0.091825
 C         3.313456        -0.147232         0.186946
 C         2.319641        -0.773190        -0.920949
 O         4.552485        -0.081840         0.648836
 C         4.270779        -0.179756         2.161664
 O         2.843488        -0.309566         2.318538
 C         2.342154        -0.802758         1.104850
 H        -0.495117         0.834869         0.581173
 H        -0.544870         0.244105        -1.048122
 H        -0.491842        -1.053884         0.212490
 H         2.270286         1.716563        -0.831679
 H         2.233632         1.588366         1.084326
 H         2.442083        -0.316665        -1.913014
 H         2.199904        -1.913707        -0.956224
 H         4.716836        -1.046280         2.633537
 H         4.603136         0.680427         2.713464
 H         2.152208        -1.834857         1.208996
