19
Iteration:  1274
 C        -0.206379         0.038408         0.108143
 C         1.365412        -0.061526         0.088562
 C         2.422767         1.188079         0.044522
 C         3.218333        -0.096519         0.122817
 C         2.317943        -0.665741        -1.003535
 O         4.543983        -0.298469         0.701593
 C         4.308530        -0.040449         2.102557
 O         2.859754        -0.470008         2.365355
 C         2.327156        -0.824695         1.103047
 H        -0.350787         0.740138         1.010121
 H        -0.574454         0.524884        -0.790554
 H        -0.766887        -0.815803         0.391404
 H         2.443088         1.652762        -0.990270
 H         2.327025         1.737287         1.021248
 H         2.375258        -0.096791        -1.929983
 H         2.235176        -1.686121        -1.239461
 H         5.094727        -0.622775         2.648758
 H         4.336447         1.013150         2.447962
 H         2.291351        -1.958294         0.781315
