19
Iteration:  4125charge 0 multiplicity 1
 C        -0.151970         0.053592        -0.138225
 C         1.349218        -0.110757         0.100006
 C         2.349277         1.067192         0.201937
 C         3.291903        -0.186815         0.175061
 C         2.316638        -0.744790        -0.925872
 O         4.543673        -0.198082         0.699081
 C         4.311191        -0.001106         2.080219
 O         2.878787        -0.328469         2.384947
 C         2.278959        -0.825663         1.073476
 H        -0.595800         0.918251         0.531115
 H        -0.320897         0.215197        -1.272815
 H        -0.720145        -0.830467         0.059357
 H         2.320136         1.793789        -0.668507
 H         2.377222         1.553461         1.213969
 H         2.313459        -0.323492        -1.893527
 H         2.262697        -1.780342        -1.120448
 H         5.012170        -0.619680         2.634967
 H         4.354534         1.051384         2.490205
 H         2.212178        -1.922965         1.099297
