19
Iteration:  2647charge 0 multiplicity 1
 C        -0.160257         0.011105        -0.031647
 C         1.317767        -0.094148         0.069022
 C         2.381993         1.172123         0.077093
 C         3.284062        -0.148580         0.129739
 C         2.288996        -0.776980        -1.042086
 O         4.577590        -0.180902         0.707384
 C         4.271908        -0.193007         2.164404
 O         2.863018        -0.282917         2.415757
 C         2.361878        -0.778218         1.101632
 H        -0.546273         0.323398         1.031980
 H        -0.660333         0.763619        -0.686308
 H        -0.691528        -0.946325        -0.228835
 H         2.428275         1.766909        -0.908676
 H         2.239414         1.887800         0.934368
 H         2.277166        -0.388418        -2.090581
 H         2.396305        -1.853185        -1.072712
 H         4.822041        -0.833392         2.822108
 H         4.403449         0.867197         2.551335
 H         2.245522        -1.820924         1.273136
