19
Iteration:  1347charge 0 multiplicity 1
 C        -0.175737         0.006424        -0.015801
 C         1.325089        -0.059376         0.141745
 C         2.314128         1.121269         0.154868
 C         3.288049        -0.194467         0.148215
 C         2.282600        -0.696393        -0.983598
 O         4.600929        -0.214382         0.596417
 C         4.297927        -0.225022         2.170695
 O         2.920267        -0.229071         2.352763
 C         2.305932        -0.745205         1.147059
 H        -0.772080         0.279994         0.836555
 H        -0.294997         0.724261        -0.896756
 H        -0.580605        -1.034210        -0.275659
 H         2.257151         1.770279        -0.777549
 H         2.463158         1.689363         1.074975
 H         2.274247        -0.139254        -1.932630
 H         1.955965        -1.790524        -1.351737
 H         4.768147        -1.188305         2.494204
 H         4.773648         0.744965         2.432584
 H         2.081410        -1.791144         1.267633
