19
Iteration:  3458charge 0 multiplicity 1
 C        -0.133905         0.006697        -0.053257
 C         1.391917        -0.055212         0.086951
 C         2.313806         1.164087         0.108615
 C         3.291099        -0.231907         0.152643
 C         2.324519        -0.793786        -0.916775
 O         4.543408        -0.086706         0.674876
 C         4.225018        -0.147752         2.131329
 O         2.839546        -0.320767         2.341573
 C         2.351852        -0.797906         1.129866
 H        -0.565724         0.694307         0.687157
 H        -0.422699         0.324282        -1.076962
 H        -0.714152        -0.908365         0.160268
 H         2.448316         1.738546        -0.806861
 H         2.386786         1.734062         1.024461
 H         2.279346        -0.112415        -1.801018
 H         2.357430        -1.808921        -1.116317
 H         4.753568        -1.066130         2.492482
 H         4.743691         0.770706         2.451572
 H         2.348603        -1.920957         1.264401
