19
Iteration:   638charge 0 multiplicity 1
 C        -0.163787         0.138637         0.077911
 C         1.385365        -0.076725         0.121728
 C         2.378907         1.056326         0.124517
 C         3.228732        -0.276244         0.136412
 C         2.271479        -0.670064        -1.162787
 O         4.585055        -0.315559         0.702073
 C         4.164558         0.187873         2.026780
 O         2.943579        -0.465179         2.451655
 C         2.392955        -0.871029         1.148904
 H        -0.502392         0.733167         0.979536
 H        -0.612207         0.629229        -0.930491
 H        -0.773402        -0.798898         0.038435
 H         2.406564         1.711647        -0.725195
 H         2.424720         1.638457         1.036800
 H         2.385997        -0.034797        -2.066905
 H         1.970377        -1.737900        -1.397296
 H         4.964757        -0.266079         2.755954
 H         4.007822         1.285317         2.156897
 H         2.294774        -1.895750         1.229337
