19
Iteration:  1144
 C        -0.132367        -0.108266         0.044134
 C         1.363277         0.035670         0.152416
 C         2.340007         1.129372         0.197799
 C         3.230793        -0.137516         0.128626
 C         2.255414        -0.567202        -1.024002
 O         4.635789        -0.316618         0.607877
 C         4.296642        -0.207955         2.083686
 O         2.842081        -0.249406         2.336526
 C         2.306559        -0.779767         1.166973
 H        -0.801202         0.467323         0.855696
 H        -0.414741         0.320855        -0.962107
 H        -0.387913        -1.186379         0.075038
 H         2.291402         1.806777        -0.690326
 H         2.445772         1.777887         1.069268
 H         2.448966        -0.002611        -2.011651
 H         2.218970        -1.694299        -1.186730
 H         4.627442        -1.121244         2.647112
 H         4.768103         0.776345         2.258867
 H         2.150796        -1.805702         1.053756
