19
Iteration:  3776
 C        -0.069918        -0.138790        -0.019206
 C         1.404932        -0.052513         0.151033
 C         2.360987         1.198247         0.088949
 C         3.240756        -0.040261         0.164847
 C         2.337956        -0.703621        -1.014356
 O         4.557082        -0.243130         0.694591
 C         4.297748        -0.241523         2.098507
 O         2.782590        -0.225203         2.351712
 C         2.289872        -0.700417         1.117966
 H        -0.762379         0.602456         0.574681
 H        -0.477915        -0.113174        -1.158040
 H        -0.395249        -1.146626         0.294966
 H         2.409882         1.693128        -0.887816
 H         2.215121         1.738334         1.017887
 H         2.386649        -0.314585        -2.065863
 H         2.377268        -1.860198        -1.025606
 H         4.535648        -1.141269         2.615001
 H         4.694140         0.567271         2.736724
 H         2.150937        -1.722113         1.318632
