19
Iteration:  2702
 C        -0.104335        -0.126936        -0.055947
 C         1.398107        -0.043751         0.069143
 C         2.397718         1.127048         0.201225
 C         3.238715        -0.149821         0.125768
 C         2.309846        -0.679063        -0.966564
 O         4.524287        -0.282289         0.664308
 C         4.275884        -0.120827         2.112672
 O         2.788966        -0.233567         2.355479
 C         2.352896        -0.715333         1.106753
 H        -0.598274         0.645408         0.691460
 H        -0.522381         0.462591        -0.947708
 H        -0.555172        -1.132697         0.049935
 H         2.530979         1.927079        -0.619667
 H         2.411441         1.439521         1.291794
 H         2.405079        -0.309280        -2.027046
 H         2.194997        -1.752230        -0.916575
 H         4.719330        -0.989850         2.578691
 H         4.587842         0.918467         2.460197
 H         2.302195        -1.796276         1.217070
