19
Iteration:   141
 C        -0.086644         0.025888         0.054159
 C         1.398995        -0.072977         0.116792
 C         2.401791         1.094413         0.193011
 C         3.229348        -0.151899         0.122359
 C         2.321103        -0.706200        -1.030840
 O         4.525868        -0.250398         0.659595
 C         4.235492        -0.031061         2.108254
 O         2.810562        -0.289529         2.268658
 C         2.332490        -0.879178         1.155363
 H        -0.527733         0.741732         0.951864
 H        -0.380117         0.444062        -0.823853
 H        -0.565119        -0.957878         0.228261
 H         2.420039         1.752613        -0.637183
 H         2.398811         1.676993         1.079982
 H         2.218213        -0.087094        -1.915854
 H         2.304201        -1.751422        -1.250436
 H         4.915799        -0.829770         2.530731
 H         4.534575         0.943885         2.487163
 H         2.221497        -1.991400         1.078448
