19
Iteration:   612
 C        -0.106016         0.048721         0.096614
 C         1.428748        -0.068648         0.130444
 C         2.409330         1.106564         0.220002
 C         3.260809        -0.173482         0.174553
 C         2.301820        -0.695572        -0.980878
 O         4.541249        -0.357893         0.688066
 C         4.203486         0.085741         1.950812
 O         2.822195        -0.381020         2.285315
 C         2.333553        -0.813649         1.068098
 H        -0.311620         0.711463         0.893597
 H        -0.612722         0.327752        -0.760131
 H        -0.613728        -0.948394         0.291731
 H         2.340962         1.820592        -0.638835
 H         2.379316         1.717673         1.116063
 H         2.393348        -0.148006        -2.053872
 H         2.359196        -1.803098        -1.039708
 H         4.863076        -0.333344         2.639568
 H         4.195717         1.192227         2.141645
 H         2.127902        -1.947123         1.131168
