19
Iteration:  2893
 C        -0.136346         0.059382         0.007878
 C         1.344054        -0.118786         0.056743
 C         2.359362         1.067751         0.123995
 C         3.292936        -0.154177         0.111908
 C         2.382560        -0.720731        -0.960719
 O         4.556792        -0.158297         0.674694
 C         4.228328        -0.102974         2.091738
 O         2.788524        -0.303468         2.378120
 C         2.348211        -0.810811         1.136372
 H        -0.498248         0.792582         0.723249
 H        -0.353711         0.319049        -1.024493
 H        -0.540844        -0.991550         0.247678
 H         2.381981         1.924649        -0.534085
 H         2.388036         1.413269         1.130661
 H         2.311667        -0.273183        -1.956397
 H         2.527441        -1.802325        -1.039634
 H         4.815860        -0.934891         2.447287
 H         4.421508         0.829443         2.602775
 H         2.105961        -1.868991         0.956392
