19
Iteration:  4006charge 0 multiplicity 1
 C        -0.173426        -0.030441        -0.023656
 C         1.383036        -0.132925         0.040110
 C         2.283688         1.133536         0.002739
 C         3.249149        -0.120469         0.154140
 C         2.394652        -0.758822        -0.958388
 O         4.550982        -0.025721         0.657932
 C         4.201228        -0.386731         2.206771
 O         2.873066        -0.209446         2.380439
 C         2.356097        -0.708934         1.158021
 H        -0.367660         0.553156         0.824988
 H        -0.478100         0.467212        -0.982977
 H        -0.682542        -0.935943         0.057573
 H         2.302166         1.794341        -0.907471
 H         2.295814         1.778932         0.918202
 H         2.426345        -0.363476        -1.955252
 H         2.307232        -1.916043        -0.976485
 H         4.740516        -1.394953         2.399859
 H         4.755166         0.338458         2.930386
 H         2.496662        -1.836035         1.332980
