19
Iteration:  1379
 C        -0.180562         0.118453         0.100833
 C         1.407239        -0.129815         0.018459
 C         2.318332         1.132967         0.023189
 C         3.211979        -0.070359         0.142255
 C         2.423503        -0.843768        -0.927623
 O         4.539687        -0.048203         0.572222
 C         4.329350        -0.342065         2.044754
 O         2.775465        -0.333806         2.481724
 C         2.344639        -0.735519         1.157870
 H        -0.403413         0.644409         1.033592
 H        -0.458643         0.932015        -0.664644
 H        -0.825750        -0.885891        -0.004440
 H         2.274776         1.722388        -0.896966
 H         2.396360         1.743219         0.861996
 H         2.466801        -0.316939        -1.890073
 H         2.392170        -2.006484        -0.832769
 H         4.639799        -1.379863         2.345402
 H         4.779700         0.520264         2.595029
 H         2.355092        -1.761474         1.085793
