19
Iteration:  2715
 C        -0.195578        -0.052881        -0.037927
 C         1.339053        -0.028580         0.122438
 C         2.429988         1.165070         0.186292
 C         3.278936        -0.139304         0.128617
 C         2.340130        -0.703333        -1.008301
 O         4.543504        -0.247871         0.714951
 C         4.249549        -0.173939         2.085423
 O         2.810203        -0.222006         2.347181
 C         2.330509        -0.847889         1.140181
 H        -0.663661         0.494502         0.835535
 H        -0.408911         0.087377        -1.169146
 H        -0.512480        -1.099769         0.117180
 H         2.488542         1.692797        -0.863646
 H         2.516845         2.057039         0.930859
 H         2.423293        -0.112375        -1.929675
 H         2.308942        -1.821846        -1.247745
 H         4.942561        -0.767568         2.695941
 H         4.510958         0.913501         2.437300
 H         2.374662        -1.900761         1.017329
