19
Iteration:  1768charge 0 multiplicity 1
 C         0.010525         0.045208         0.028036
 C         1.391853        -0.028454         0.076212
 C         2.376900         1.067167         0.135216
 C         3.287357        -0.176761         0.101835
 C         2.242449        -0.738447        -0.966748
 O         4.537831        -0.156969         0.607718
 C         4.226203        -0.245519         2.152735
 O         2.820887        -0.171989         2.366090
 C         2.304624        -0.816132         1.147406
 H        -0.274697         0.542559         0.941008
 H        -0.337012         0.415614        -0.978976
 H        -0.459200        -0.923251         0.403522
 H         2.208405         1.568643        -0.874519
 H         2.327872         1.707752         1.004455
 H         2.256353        -0.246410        -1.956188
 H         2.087968        -1.862122        -1.200536
 H         4.657801        -1.199422         2.475110
 H         4.594618         0.656536         2.509566
 H         2.036863        -2.018246         1.211715
