19
Iteration:   307charge 0 multiplicity 1
 C        -0.139210        -0.262646         0.067701
 C         1.370347        -0.025264         0.086752
 C         2.402848         1.254481         0.034249
 C         3.213374        -0.124696         0.125360
 C         2.309368        -0.710122        -1.020254
 O         4.537261        -0.134203         0.672624
 C         4.256256        -0.490833         2.073326
 O         2.900619        -0.109088         2.420020
 C         2.288850        -0.589907         1.172657
 H        -0.544278         0.684439         0.592555
 H        -0.406053        -0.053474        -0.941615
 H        -0.604167        -1.300462         0.328570
 H         2.623833         1.841763        -0.836847
 H         2.449683         1.896678         0.971226
 H         2.379014        -0.175069        -2.025359
 H         2.324986        -1.767451        -1.134775
 H         4.372356        -1.665260         2.070526
 H         4.922944         0.107024         2.789775
 H         1.969427        -1.618521         1.442267
