19
Iteration:  1122charge 0 multiplicity 1
 C        -0.195183         0.061570         0.087415
 C         1.403587        -0.134849         0.076315
 C         2.296881         1.146546         0.152752
 C         3.237215        -0.093449         0.152907
 C         2.372096        -0.742790        -1.078090
 O         4.472996        -0.158556         0.677318
 C         4.307876        -0.269976         2.079015
 O         2.916354        -0.274355         2.369685
 C         2.354728        -0.841528         1.135562
 H        -0.318524         0.965044         0.872145
 H        -0.570905         0.615395        -0.834485
 H        -0.862522        -0.764921         0.354537
 H         2.398558         1.869820        -0.702685
 H         2.048506         1.661496         1.068354
 H         2.274147        -0.033948        -2.001273
 H         2.472373        -1.832547        -1.434328
 H         4.837297        -1.218042         2.399596
 H         4.741641         0.691892         2.448506
 H         2.339451        -1.882473         1.022969
