19
Iteration:  2913
 C        -0.089053         0.019935         0.010650
 C         1.383517        -0.125405         0.119767
 C         2.279182         1.224700         0.178236
 C         3.257465        -0.158528         0.164620
 C         2.420274        -0.765514        -1.038897
 O         4.506869        -0.176124         0.688817
 C         4.240335        -0.146964         2.123103
 O         2.842866        -0.259694         2.335101
 C         2.286945        -0.890303         1.105960
 H        -0.182097         0.847107         0.670001
 H        -0.261294         0.428559        -1.036662
 H        -0.524357        -0.950118         0.339315
 H         2.282299         1.657670        -0.861897
 H         2.127369         2.062725         0.916751
 H         2.610226        -0.386095        -1.959016
 H         2.172071        -1.832364        -1.151802
 H         4.721699        -0.985605         2.554219
 H         4.577984         0.813572         2.541703
 H         2.447475        -1.923658         0.861221
