19
Iteration:  3963
 C        -0.143883        -0.065564        -0.077276
 C         1.379843        -0.047711         0.088103
 C         2.382426         1.153950         0.126440
 C         3.214283        -0.135308         0.170742
 C         2.350508        -0.729283        -0.947757
 O         4.540915        -0.179443         0.599761
 C         4.196452        -0.118610         2.156885
 O         2.890123        -0.302922         2.424144
 C         2.298065        -0.800905         1.179771
 H        -0.602307         0.718941         0.419346
 H        -0.302766         0.132437        -1.189974
 H        -0.578445        -1.021364         0.137871
 H         2.529067         1.710777        -0.818015
 H         2.329079         1.719483         1.074427
 H         2.435361        -0.121101        -1.863535
 H         2.416121        -1.817770        -1.376526
 H         4.823180        -0.955762         2.406589
 H         4.758930         0.809604         2.436648
 H         2.075798        -1.880086         1.248379
