19
Iteration:  4047
 C        -0.069544        -0.174861         0.041603
 C         1.370901        -0.023587        -0.006959
 C         2.378190         1.134991         0.072198
 C         3.305631        -0.097913         0.113305
 C         2.370409        -0.767770        -0.965779
 O         4.527648        -0.086373         0.685283
 C         4.196779        -0.396049         2.177183
 O         2.816116        -0.093085         2.327165
 C         2.296710        -0.717195         1.124205
 H        -0.365101         0.096604         1.148861
 H        -0.708771         0.532731        -0.478430
 H        -0.553548        -1.122431        -0.063757
 H         2.411437         1.792033        -0.825706
 H         2.390317         1.877017         0.876366
 H         2.571989        -0.302324        -1.884213
 H         2.258821        -1.791794        -0.935078
 H         4.340049        -1.456467         2.465416
 H         4.731895         0.225545         2.926678
 H         2.150032        -1.801546         1.108927
