19
Iteration:   200
 C        -0.120153        -0.025436        -0.030657
 C         1.384320        -0.003431         0.164238
 C         2.366745         1.200650         0.176637
 C         3.229820        -0.151634         0.163244
 C         2.317260        -0.707645        -0.929855
 O         4.581276        -0.343837         0.579560
 C         4.251059         0.013193         2.025310
 O         2.834899        -0.376872         2.420474
 C         2.329424        -0.854858         1.141059
 H        -0.703100         0.156870         0.846127
 H        -0.274135         0.960118        -0.678247
 H        -0.511417        -0.904043        -0.641190
 H         2.309882         1.829887        -0.812853
 H         2.358648         1.968065         1.072151
 H         2.430232        -0.354145        -2.046996
 H         2.033567        -1.820760        -1.065105
 H         4.942417        -0.454101         2.683628
 H         4.222756         1.119511         2.176199
 H         2.348472        -1.976170         1.164724
