19
Iteration:  1227charge 0 multiplicity 1
 C        -0.124252         0.208205         0.104624
 C         1.382024        -0.170710         0.055958
 C         2.347748         1.072184         0.258249
 C         3.225671        -0.146551         0.100939
 C         2.298464        -0.716866        -1.003000
 O         4.551720        -0.167490         0.654762
 C         4.293286        -0.025233         2.006461
 O         2.787509        -0.421088         2.347146
 C         2.381993        -0.889921         1.102570
 H        -0.411903         0.649926         0.980591
 H        -0.343542         0.821157        -0.776641
 H        -0.703245        -0.685325        -0.029560
 H         2.496098         1.614358        -0.717878
 H         2.446070         1.518613         1.226605
 H         2.184459        -0.238654        -1.945135
 H         2.513344        -1.798544        -1.122837
 H         4.805593        -0.704283         2.690044
 H         4.458230         0.994072         2.316890
 H         2.380021        -2.078406         1.049635
