19
Iteration:  4163charge 0 multiplicity 1
 C        -0.123276         0.055514        -0.041408
 C         1.370813        -0.055837         0.045227
 C         2.390845         1.058235         0.102856
 C         3.249406        -0.170863         0.123414
 C         2.402995        -0.737503        -1.005301
 O         4.521818        -0.260535         0.722220
 C         4.220557         0.122957         2.048417
 O         2.901963        -0.497379         2.484726
 C         2.220768        -0.805704         1.129725
 H        -0.527321         0.740354         0.638037
 H        -0.405138         0.504801        -0.949758
 H        -0.715894        -0.886048         0.196965
 H         2.487724         1.829939        -0.669595
 H         2.163310         1.657921         1.001436
 H         2.449816         0.000308        -1.858022
 H         2.331067        -1.848186        -0.986565
 H         5.133843        -0.142156         2.657892
 H         4.232006         1.236678         1.994318
 H         2.201361        -1.929662         1.048099
