19
Iteration:  1152
 C        -0.155921        -0.174485         0.029396
 C         1.389885         0.093473         0.232221
 C         2.408112         1.253418         0.228882
 C         3.263794        -0.174491         0.119816
 C         2.286797        -0.625516        -1.022415
 O         4.584530        -0.347130         0.600538
 C         4.229128        -0.202579         2.037095
 O         2.870002        -0.252996         2.337052
 C         2.297495        -0.748941         1.120364
 H        -0.844941         0.306199         0.815396
 H        -0.523959         0.248879        -0.970725
 H        -0.301503        -1.217717        -0.087932
 H         2.474407         1.875660        -0.746290
 H         2.365042         1.718377         1.196144
 H         2.256885        -0.049184        -1.891303
 H         2.120205        -1.633972        -1.243855
 H         4.824438        -0.964023         2.619054
 H         4.581933         0.794987         2.404430
 H         2.062894        -1.872705         1.173065
