19
Iteration:  1003charge 0 multiplicity 1
 C        -0.119869        -0.188619        -0.019606
 C         1.327227         0.043759         0.100240
 C         2.290783         1.203644         0.144441
 C         3.238831        -0.125754         0.144071
 C         2.297204        -0.610826        -1.000006
 O         4.550408        -0.291875         0.613693
 C         4.375558        -0.343782         2.069834
 O         2.915442        -0.182182         2.379679
 C         2.270285        -0.679501         1.207382
 H        -0.514816         0.240460         0.925583
 H        -0.593404         0.422334        -0.735462
 H        -0.341550        -1.228167        -0.062428
 H         2.392312         1.908410        -0.714800
 H         2.231795         1.769913         1.037252
 H         2.231794        -0.091203        -2.053339
 H         2.000559        -1.710210        -1.189431
 H         4.773013        -1.286828         2.425984
 H         4.899060         0.521041         2.596495
 H         2.224950        -1.887140         1.332406
