19
Iteration:   511
 C        -0.179602        -0.060137        -0.037778
 C         1.317717        -0.062826         0.026897
 C         2.356524         1.153534         0.037384
 C         3.196964        -0.068815         0.167188
 C         2.358024        -0.795092        -0.969343
 O         4.468545        -0.055129         0.664715
 C         4.367427        -0.451687         2.055787
 O         2.969056        -0.140323         2.434524
 C         2.282167        -0.711452         1.244668
 H        -0.682045         0.407173         0.886451
 H        -0.497919         0.465612        -0.842107
 H        -0.441978        -1.077653        -0.045183
 H         2.487515         1.572602        -0.959181
 H         2.210582         1.999601         0.856298
 H         2.293579        -0.303174        -1.981588
 H         2.266169        -1.931289        -0.766339
 H         4.440961        -1.495915         2.024926
 H         5.186415        -0.033145         2.654442
 H         2.260048        -1.847615         1.502519
