19
Iteration:  3567
 C        -0.147531         0.042159         0.034944
 C         1.333288        -0.106555         0.062075
 C         2.345960         1.070838         0.098142
 C         3.299926        -0.129371         0.132941
 C         2.378264        -0.793139        -1.034179
 O         4.543700        -0.184568         0.744831
 C         4.220498         0.003459         2.080979
 O         2.822865        -0.391214         2.364709
 C         2.328280        -0.794571         1.137679
 H        -0.310231         0.691710         0.881072
 H        -0.441724         0.742763        -0.767846
 H        -0.596761        -0.843419        -0.029320
 H         2.601379         1.778863        -0.690317
 H         2.340247         1.518013         1.086716
 H         2.450543        -0.301799        -2.047470
 H         2.305313        -1.853185        -1.121887
 H         4.913485        -0.564221         2.770729
 H         4.336252         1.091142         2.328984
 H         2.343809        -1.913829         0.901701
