19
Iteration:   892
 C        -0.066539        -0.112126         0.109036
 C         1.397063        -0.003205         0.060708
 C         2.494756         1.217828         0.236723
 C         3.265445        -0.137779         0.128338
 C         2.244672        -0.633209        -0.950140
 O         4.462926        -0.399899         0.622942
 C         4.220560         0.037771         2.022081
 O         2.819031        -0.379168         2.357989
 C         2.313033        -0.778204         1.050058
 H        -0.292652         0.294710         1.135152
 H        -0.722492         0.438756        -0.579304
 H        -0.354404        -1.086565        -0.036611
 H         2.542528         1.841758        -0.665129
 H         2.618785         1.870460         1.108995
 H         2.390035        -0.189527        -1.988542
 H         2.318773        -1.815526        -1.070323
 H         4.989863        -0.506781         2.507502
 H         4.197644         1.186707         2.075572
 H         2.282834        -2.015173         1.147907
