19
Iteration:  4496
 C        -0.143332        -0.067771        -0.049744
 C         1.348081        -0.011935        -0.011559
 C         2.307838         1.181364         0.031618
 C         3.254158        -0.148887         0.162511
 C         2.351572        -0.673400        -0.942626
 O         4.485925        -0.282133         0.678430
 C         4.332818        -0.153297         2.192539
 O         2.859141        -0.275583         2.427608
 C         2.353214        -0.786319         1.122352
 H        -0.525681         0.774117         0.662361
 H        -0.636501         0.021186        -1.104568
 H        -0.388109        -1.063442         0.344875
 H         2.446223         1.894352        -0.773058
 H         2.199368         1.823428         0.906250
 H         2.424695        -0.147690        -1.880938
 H         2.364103        -1.798383        -1.158147
 H         4.853342        -0.952271         2.758155
 H         4.614372         0.854913         2.465363
 H         2.387626        -1.906241         1.236900
