19
Iteration:  2835charge 0 multiplicity 1
 C        -0.141960        -0.064652        -0.000482
 C         1.378215        -0.007048         0.106110
 C         2.323608         1.197087         0.161439
 C         3.240987        -0.111513         0.086948
 C         2.428666        -0.729867        -1.037923
 O         4.577714        -0.345298         0.613499
 C         4.221235        -0.085546         2.143952
 O         2.802972        -0.326671         2.400384
 C         2.320102        -0.741077         1.163120
 H        -0.669075         0.239652         0.944633
 H        -0.437658         0.652022        -0.947618
 H        -0.392167        -1.110811        -0.418798
 H         2.434298         1.932472        -0.730627
 H         2.420052         1.873950         1.145948
 H         2.379322        -0.366108        -2.015320
 H         2.601099        -1.857848        -0.918387
 H         4.970355        -0.543989         2.754964
 H         4.336799         1.045151         2.344936
 H         1.930139        -1.952588         1.353312
