19
Iteration:  3339
 C        -0.128513        -0.053014        -0.045366
 C         1.335567        -0.100390         0.084140
 C         2.291677         1.099104         0.047708
 C         3.194409        -0.131588         0.171397
 C         2.442508        -0.718816        -0.993404
 O         4.552765        -0.148215         0.699444
 C         4.299025        -0.288075         2.092597
 O         2.853161        -0.171282         2.410605
 C         2.299657        -0.705430         1.202152
 H        -0.643294         0.111306         0.951830
 H        -0.577536         0.741939        -0.687248
 H        -0.625137        -1.035043        -0.453862
 H         2.279345         1.587106        -0.946539
 H         2.428389         1.687238         0.967010
 H         2.480367        -0.207300        -2.020071
 H         2.446663        -1.819324        -1.040558
 H         4.715972        -1.257617         2.426974
 H         4.869678         0.500762         2.534563
 H         2.233293        -1.754838         1.016379
