19
Iteration:  3757
 C        -0.178370        -0.087651         0.003704
 C         1.386136        -0.030604        -0.045251
 C         2.309387         1.189033         0.058640
 C         3.243923        -0.152596         0.195479
 C         2.462921        -0.771902        -0.966860
 O         4.522836        -0.117132         0.670762
 C         4.250608        -0.301983         2.151646
 O         2.851803        -0.195715         2.402315
 C         2.319518        -0.768164         1.135552
 H        -0.483080         0.636261         0.744483
 H        -0.800415         0.335831        -0.869811
 H        -0.615796        -1.096537         0.257459
 H         2.421410         1.817535        -0.817010
 H         2.410457         1.739670         0.995433
 H         2.503867        -0.167449        -1.852250
 H         2.284245        -1.866574        -1.034118
 H         4.640743        -1.346742         2.392182
 H         4.650242         0.640437         2.628332
 H         2.380187        -1.938012         1.204221
