19
Iteration:  3406
 C        -0.090836        -0.091458         0.086869
 C         1.356514        -0.052343         0.048749
 C         2.310642         1.123501         0.058047
 C         3.241458        -0.103930         0.150454
 C         2.412838        -0.679184        -1.000796
 O         4.580861        -0.111868         0.656708
 C         4.219272        -0.343012         2.167773
 O         2.838509        -0.166220         2.352914
 C         2.226496        -0.765229         1.135797
 H        -0.497049         0.743057         0.595607
 H        -0.489508         0.013239        -0.934935
 H        -0.443759        -1.196774         0.387600
 H         2.448828         1.454159        -0.992203
 H         2.388648         1.853187         0.854957
 H         2.471757        -0.200127        -2.021241
 H         2.456845        -1.785422        -0.998045
 H         4.638651        -1.389243         2.376285
 H         4.746170         0.331475         2.727955
 H         2.364249        -1.766378         1.301922
