19
Iteration:  2565
 C        -0.120707        -0.095517         0.031824
 C         1.353904        -0.051981         0.069145
 C         2.382284         1.224902         0.089958
 C         3.281722        -0.106424         0.149693
 C         2.333678        -0.700531        -1.008443
 O         4.522339        -0.302219         0.670378
 C         4.274237        -0.153371         2.135409
 O         2.819723        -0.234970         2.379515
 C         2.310681        -0.760504         1.117962
 H        -0.586445         0.594166         0.730766
 H        -0.374194         0.121052        -1.035821
 H        -0.487053        -1.154511         0.344548
 H         2.328100         1.928166        -0.698792
 H         2.456124         1.697260         1.063992
 H         2.497602        -0.280099        -1.995520
 H         2.021679        -1.780356        -1.098867
 H         4.918678        -1.029245         2.400306
 H         4.536281         0.781411         2.583720
 H         2.339906        -1.904093         1.095348
