19
Iteration:  3471
 C        -0.107838        -0.026307        -0.032540
 C         1.358216        -0.100054         0.142467
 C         2.397998         1.131663         0.120651
 C         3.161869        -0.141229         0.112456
 C         2.360269        -0.732805        -1.086132
 O         4.532839        -0.169555         0.684563
 C         4.282238        -0.110389         2.077031
 O         2.840554        -0.265938         2.449103
 C         2.314702        -0.840412         1.188520
 H        -0.484991         0.628259         0.698123
 H        -0.251722         0.529114        -0.964008
 H        -0.558452        -1.093675        -0.149910
 H         2.442375         1.661262        -0.836084
 H         2.423975         1.789368         0.982236
 H         2.377173        -0.277320        -2.084387
 H         2.267139        -1.791386        -1.128473
 H         4.881919        -0.878202         2.603959
 H         4.396771         0.776647         2.600071
 H         2.235241        -1.886087         1.090226
