19
Iteration:  1362
 C        -0.094543         0.071710         0.013385
 C         1.351865        -0.083204         0.123771
 C         2.272260         1.159789         0.075172
 C         3.199068        -0.097069         0.129852
 C         2.284527        -0.773606        -0.974657
 O         4.502900        -0.174957         0.707889
 C         4.357097        -0.272627         2.066006
 O         2.906345        -0.257481         2.339673
 C         2.346801        -0.811795         1.152038
 H        -0.483514         0.489091         0.988470
 H        -0.364980         0.798506        -0.723441
 H        -0.607577        -0.759602        -0.318975
 H         2.313182         1.671518        -0.923591
 H         2.081923         1.910606         0.961676
 H         2.299321        -0.337539        -2.001817
 H         2.427564        -1.820824        -0.886506
 H         4.880799        -1.162195         2.485876
 H         4.810616         0.475159         2.699744
 H         2.403343        -2.006942         1.145019
