19
Iteration:  2889
 C        -0.185193         0.033346         0.008628
 C         1.326933        -0.111018         0.068148
 C         2.370272         1.078690         0.119742
 C         3.326730        -0.196567         0.095438
 C         2.372455        -0.720911        -0.985981
 O         4.574592        -0.154330         0.686914
 C         4.232252        -0.079718         2.087234
 O         2.803954        -0.306770         2.422037
 C         2.310764        -0.802458         1.124183
 H        -0.437692         0.837073         0.717600
 H        -0.343360         0.408796        -1.089772
 H        -0.431981        -1.006497         0.207798
 H         2.382058         2.012554        -0.545954
 H         2.390973         1.474303         1.223214
 H         2.450649        -0.308369        -1.968323
 H         2.365621        -1.848915        -1.175609
 H         4.782831        -0.957279         2.426358
 H         4.469876         0.863739         2.631515
 H         2.176439        -1.859977         0.837568
