19
Iteration:  3880
 C        -0.130899         0.071228         0.092214
 C         1.406551        -0.036567         0.024243
 C         2.410415         1.074293         0.106523
 C         3.277795        -0.222041         0.107417
 C         2.355759        -0.809474        -1.063720
 O         4.538530        -0.152741         0.703293
 C         4.153648         0.044460         2.171393
 O         2.857016        -0.380546         2.383324
 C         2.298618        -0.887246         1.075932
 H        -0.608831         0.189777         1.087243
 H        -0.461617         0.940240        -0.525501
 H        -0.593880        -0.887461        -0.381855
 H         2.627912         1.681287        -0.779130
 H         2.349561         1.808422         0.918881
 H         2.340484        -0.178952        -1.973280
 H         2.196478        -1.844976        -1.037719
 H         4.987111        -0.520767         2.772186
 H         4.209682         1.172891         2.326754
 H         2.278055        -1.995841         1.251716
