19
Iteration:  3974
 C        -0.129438        -0.023037        -0.099210
 C         1.348786        -0.074281         0.106298
 C         2.299918         1.171414         0.088796
 C         3.238246        -0.182809         0.136135
 C         2.416361        -0.727760        -0.961583
 O         4.510288        -0.128334         0.655693
 C         4.340024        -0.217908         2.100923
 O         2.826246        -0.306954         2.406097
 C         2.338522        -0.742371         1.213474
 H        -0.611831         0.690294         0.470282
 H        -0.422961         0.155109        -1.181661
 H        -0.581797        -0.951857         0.190347
 H         2.250841         1.804529        -0.824292
 H         2.499056         1.821311         0.968960
 H         2.420004        -0.273818        -1.948219
 H         2.135811        -1.880470        -0.826117
 H         4.760957        -1.083018         2.591724
 H         4.452337         0.760660         2.649967
 H         2.399650        -1.859491         1.118365
