19
Iteration:  1990charge 0 multiplicity 1
 C        -0.151473        -0.048319         0.096867
 C         1.435872        -0.074248         0.041580
 C         2.299277         1.168090         0.098106
 C         3.182181        -0.070324         0.118592
 C         2.422168        -0.779017        -0.934957
 O         4.464727        -0.280468         0.681931
 C         4.296594        -0.411826         2.050655
 O         2.846184        -0.032288         2.350017
 C         2.358025        -0.663265         1.098566
 H        -0.708938         0.332847         0.976683
 H        -0.614573         0.521875        -0.680745
 H        -0.426676        -1.071239        -0.102411
 H         2.423091         1.827962        -0.725552
 H         2.267380         1.770593         1.040106
 H         2.436504        -0.325952        -1.963940
 H         2.495630        -1.874807        -1.048428
 H         4.640814        -1.494155         2.504893
 H         4.925164         0.346197         2.598750
 H         2.386874        -1.816028         1.267490
