19
Iteration:  4335
 C        -0.085567        -0.083561         0.021717
 C         1.394149        -0.069060         0.120618
 C         2.282680         1.127887         0.074081
 C         3.216327        -0.083476         0.099685
 C         2.472336        -0.767854        -0.987397
 O         4.544875        -0.153730         0.667535
 C         4.252838        -0.334552         2.105364
 O         2.800052        -0.160095         2.400899
 C         2.262817        -0.696680         1.168614
 H        -0.382613         0.834001         0.389776
 H        -0.196255        -0.049657        -1.124460
 H        -0.764446        -0.907261         0.234297
 H         2.209370         1.978891        -0.711715
 H         2.340195         1.741260         1.048028
 H         2.483438        -0.573586        -1.998463
 H         2.440457        -1.898758        -1.105326
 H         4.730229        -1.300166         2.253423
 H         4.837998         0.509732         2.609726
 H         2.147760        -1.761958         1.295908
