19
Iteration:  3318charge 0 multiplicity 1
 C        -0.135056         0.010104        -0.039760
 C         1.387239        -0.112698         0.006083
 C         2.312628         1.189995         0.155584
 C         3.308743        -0.125360         0.109491
 C         2.336458        -0.823249        -0.942043
 O         4.537728        -0.111135         0.639851
 C         4.237101        -0.200833         2.203079
 O         2.888887        -0.204534         2.359209
 C         2.301243        -0.856074         1.179359
 H        -0.695469         0.254547         0.876228
 H        -0.385153         0.752087        -0.812131
 H        -0.717023        -0.937387        -0.440659
 H         2.302106         1.824204        -0.784107
 H         2.189211         1.661166         1.169147
 H         2.438162        -0.418738        -2.039260
 H         2.218383        -1.929625        -1.002937
 H         4.843431        -1.112965         2.468520
 H         4.657890         0.642596         2.661599
 H         2.260656        -2.005209         1.072466
