19
Iteration:    71charge 0 multiplicity 1
 C        -0.086408        -0.085758        -0.000685
 C         1.388499         0.000191         0.110624
 C         2.334744         1.169658        -0.027011
 C         3.199787        -0.093711         0.122821
 C         2.296437        -0.791419        -0.928198
 O         4.525766        -0.036570         0.633320
 C         4.261400        -0.488391         2.085605
 O         2.863865        -0.197982         2.441947
 C         2.360301        -0.642702         1.237224
 H        -0.594050         0.348772         0.874350
 H        -0.575200         0.322006        -1.057472
 H        -0.187829        -1.199754         0.091564
 H         2.365470         1.890279        -0.863506
 H         2.322299         1.894435         0.810261
 H         2.317085        -0.342001        -1.951733
 H         2.081801        -1.883970        -1.053043
 H         4.491198        -1.648004         2.039567
 H         5.056202        -0.041724         2.752896
 H         2.345973        -1.729936         1.167283
