19
Iteration:  1373
 C        -0.147370         0.130821         0.029291
 C         1.374757        -0.135046         0.055070
 C         2.297684         1.158110         0.004510
 C         3.198395        -0.047952         0.140335
 C         2.396568        -0.809419        -0.912774
 O         4.496244        -0.110151         0.625730
 C         4.391732        -0.305998         2.077425
 O         2.782458        -0.314005         2.412981
 C         2.381002        -0.787180         1.197162
 H        -0.366750         0.418917         1.095970
 H        -0.455883         0.886626        -0.643545
 H        -0.644497        -0.756379         0.020501
 H         2.272605         1.800397        -0.915586
 H         2.354862         1.783710         1.012354
 H         2.195001        -0.469019        -1.951010
 H         2.362221        -1.868830        -0.951707
 H         4.656689        -1.354705         2.219243
 H         4.861486         0.543959         2.522221
 H         2.503525        -1.979168         1.093537
