19
Iteration:  4635charge 0 multiplicity 1
 C        -0.167998        -0.084186        -0.044048
 C         1.368495        -0.092697         0.051037
 C         2.423240         1.099848         0.135391
 C         3.223132        -0.138636         0.188701
 C         2.297780        -0.716557        -0.957125
 O         4.551723        -0.202325         0.684404
 C         4.262443        -0.195135         2.148472
 O         2.840956        -0.157061         2.324232
 C         2.343255        -0.784985         1.169082
 H        -0.709695         0.401148         0.851910
 H        -0.421696         0.497480        -0.915026
 H        -0.617294        -1.025122        -0.435192
 H         2.408725         1.804150        -0.822211
 H         2.362734         1.906533         0.953712
 H         2.418324         0.002846        -1.946422
 H         2.341727        -1.804440        -1.205963
 H         4.699130        -1.195670         2.481007
 H         4.866724         0.634619         2.571602
 H         2.278468        -1.865624         1.248511
