19
Iteration:  2294
 C        -0.042756        -0.059698         0.030892
 C         1.400340        -0.018557         0.151516
 C         2.334360         1.093701         0.157371
 C         3.254091        -0.186155         0.103067
 C         2.260438        -0.723611        -1.002804
 O         4.568519        -0.302486         0.702834
 C         4.257463        -0.140006         2.067290
 O         2.845864        -0.160388         2.302126
 C         2.273849        -0.765470         1.132737
 H        -0.437423         0.349592         0.882458
 H        -0.414878         0.537330        -0.750953
 H        -0.393630        -1.095542        -0.077381
 H         2.361731         1.682462        -0.819213
 H         2.522976         1.842714         1.008802
 H         2.386536        -0.023307        -1.816698
 H         2.136953        -1.758035        -1.421286
 H         4.534834        -0.959106         2.654345
 H         4.574438         0.886991         2.445478
 H         2.160809        -1.805686         1.347698
