19
Iteration:  4082charge 0 multiplicity 1
 C        -0.148022        -0.151114        -0.010161
 C         1.402579        -0.076783         0.092947
 C         2.328715         1.187471         0.037759
 C         3.214069        -0.097476         0.135811
 C         2.400936        -0.683771        -0.952361
 O         4.541613        -0.231750         0.714645
 C         4.285530        -0.250083         2.181939
 O         2.826754        -0.216770         2.314165
 C         2.286139        -0.677180         1.131951
 H        -0.364551         0.297815         0.936701
 H        -0.450708         0.483651        -0.879550
 H        -0.485653        -1.124247        -0.135966
 H         2.260039         1.506572        -1.016623
 H         2.402655         1.866328         0.904158
 H         2.475482        -0.187476        -1.811993
 H         2.353979        -1.700985        -1.175530
 H         4.588985        -1.208552         2.637823
 H         4.872536         0.661930         2.559236
 H         2.126753        -1.771498         1.320743
