19
Iteration:  1109
 C        -0.138801         0.182431         0.149797
 C         1.285948        -0.100002         0.082316
 C         2.247386         1.078796         0.127225
 C         3.194393        -0.127181         0.098946
 C         2.460903        -0.780982        -1.041628
 O         4.540324        -0.021283         0.628040
 C         4.279419        -0.272440         2.088111
 O         2.890419        -0.376592         2.358632
 C         2.344030        -0.826489         1.112556
 H        -0.418398         0.953570         0.987242
 H        -0.433284         0.473048        -0.932249
 H        -0.703401        -0.730798         0.329146
 H         2.186909         1.747847        -0.808861
 H         2.351145         1.603699         1.060467
 H         2.592273        -0.362063        -2.038041
 H         2.538650        -1.865375        -0.965814
 H         4.740287        -1.265838         2.404312
 H         4.726079         0.495623         2.763344
 H         2.361054        -1.875064         1.215039
