19
Iteration:  3842
 C        -0.098931         0.041319         0.000835
 C         1.382421        -0.070550         0.067225
 C         2.293157         1.106243         0.134231
 C         3.247586        -0.097388         0.187729
 C         2.413202        -0.752862        -1.042488
 O         4.524296        -0.219781         0.650524
 C         4.220745        -0.052326         2.119993
 O         2.828403        -0.297551         2.405333
 C         2.358711        -0.881580         1.167016
 H        -0.484353         0.501205         0.958657
 H        -0.343275         0.660317        -0.991580
 H        -0.568977        -0.948909        -0.220975
 H         2.304947         1.578170        -0.872702
 H         2.219449         1.771387         0.994543
 H         2.421150        -0.478271        -2.106081
 H         2.236580        -1.934775        -1.161989
 H         4.893025        -0.720351         2.598757
 H         4.583187         0.916478         2.477261
 H         2.207094        -1.927435         1.035318
