19
Iteration:  4259charge 0 multiplicity 1
 C        -0.120056        -0.128491        -0.040293
 C         1.423742        -0.109121         0.073903
 C         2.378502         1.217509         0.039155
 C         3.226987        -0.100291         0.179845
 C         2.417120        -0.794618        -0.903281
 O         4.522281        -0.097278         0.652473
 C         4.188321        -0.334640         2.129895
 O         2.862120        -0.169592         2.359716
 C         2.253949        -0.718284         1.132430
 H        -0.341470         0.405734         0.883945
 H        -0.465633         0.673869        -0.925163
 H        -0.656257        -1.194243        -0.063174
 H         2.311722         1.909057        -0.874031
 H         2.368143         1.922632         0.966644
 H         2.324492        -0.366592        -1.874150
 H         2.337602        -1.943452        -0.760255
 H         4.596815        -1.347561         2.305074
 H         4.913771         0.327036         2.705554
 H         2.152267        -1.836739         1.312644
