19
Iteration:  1140
 C        -0.120826        -0.060513         0.050897
 C         1.328547        -0.035171         0.103053
 C         2.324479         1.114957         0.189368
 C         3.216247        -0.134099         0.126727
 C         2.267375        -0.556593        -1.024846
 O         4.620684        -0.301409         0.617784
 C         4.344097        -0.215405         2.095516
 O         2.830976        -0.246179         2.344987
 C         2.314544        -0.775045         1.151605
 H        -0.651954         0.459110         0.847855
 H        -0.405455         0.334305        -0.961371
 H        -0.446825        -1.080377         0.181052
 H         2.269140         1.805363        -0.723792
 H         2.471097         1.779182         1.031736
 H         2.395427        -0.034978        -1.890959
 H         2.228615        -1.586647        -1.136741
 H         4.718691        -1.120787         2.589517
 H         4.773340         0.750407         2.428942
 H         2.243072        -1.947022         1.134031
