19
Iteration:  4254charge 0 multiplicity 1
 C        -0.171114        -0.118362        -0.044768
 C         1.380718        -0.107314         0.058510
 C         2.401977         1.234537         0.092763
 C         3.250135        -0.092556         0.150821
 C         2.444703        -0.842396        -0.940880
 O         4.531195        -0.121909         0.642399
 C         4.209462        -0.315879         2.117937
 O         2.842973        -0.159989         2.359499
 C         2.252364        -0.717394         1.148766
 H        -0.291760         0.338923         0.967828
 H        -0.408777         0.594424        -0.682623
 H        -0.557257        -1.059188        -0.040128
 H         2.302616         1.794036        -0.806410
 H         2.366084         1.796084         0.983706
 H         2.384690        -0.264776        -1.909754
 H         2.557523        -1.879868        -0.810931
 H         4.562348        -1.323664         2.403425
 H         4.686896         0.441702         2.710728
 H         2.105342        -1.751504         1.364242
