19
Iteration:  1782charge 0 multiplicity 1
 C        -0.108646         0.098447         0.065820
 C         1.389670        -0.119015         0.136333
 C         2.357165         1.117059         0.067983
 C         3.233240        -0.188383         0.129875
 C         2.318364        -0.779292        -0.996228
 O         4.583201        -0.179517         0.531612
 C         4.216779        -0.171859         2.193898
 O         2.809109        -0.255335         2.408871
 C         2.339229        -0.807360         1.139264
 H        -0.494883         0.810386         0.775800
 H        -0.316911         0.615527        -0.906264
 H        -0.744409        -0.822840        -0.144908
 H         2.543703         1.812601        -0.786551
 H         2.376888         1.798143         1.035740
 H         2.258915        -0.247280        -1.978341
 H         2.249312        -1.910985        -1.054498
 H         4.723454        -1.060045         2.449708
 H         4.718433         0.726155         2.669064
 H         2.372685        -1.905982         1.262577
