19
Iteration:  4842charge 0 multiplicity 1
 C        -0.126657        -0.019934        -0.005523
 C         1.351718        -0.102093         0.019771
 C         2.254553         1.118080         0.075528
 C         3.253864        -0.100285         0.214336
 C         2.382722        -0.712225        -1.023686
 O         4.608580        -0.216842         0.617996
 C         4.253992        -0.233468         2.186976
 O         2.848647        -0.216078         2.421619
 C         2.286553        -0.792809         1.116203
 H        -0.439218         0.852107         0.743777
 H        -0.509426         0.354743        -0.938112
 H        -0.554372        -1.054131         0.248042
 H         2.362301         1.734437        -0.844315
 H         2.194968         1.786988         0.893687
 H         2.415596        -0.083649        -1.960699
 H         2.444158        -1.746004        -1.187802
 H         4.700189        -1.074231         2.650318
 H         4.709159         0.791456         2.662093
 H         2.394565        -1.868103         1.308988
