19
Iteration:  4386
 C        -0.049405        -0.023345         0.062630
 C         1.403571        -0.063889         0.060405
 C         2.426892         1.121856         0.106426
 C         3.290259        -0.195910         0.089184
 C         2.367111        -0.768391        -1.001730
 O         4.521332        -0.260527         0.673013
 C         4.161976         0.029351         2.157989
 O         2.799179        -0.344136         2.405949
 C         2.248180        -0.698751         1.100901
 H        -0.484592         0.149223         1.118752
 H        -0.579522         0.587457        -0.684418
 H        -0.391002        -1.001096        -0.349242
 H         2.561614         1.668300        -0.785018
 H         2.359509         1.638091         1.095819
 H         2.356750        -0.139225        -1.996874
 H         2.193164        -1.879455        -1.283036
 H         4.879398        -0.730664         2.569944
 H         4.510319         1.046786         2.266207
 H         2.196452        -1.823091         1.092214
