19
Iteration:  2540
 C        -0.133266        -0.100027        -0.007373
 C         1.315602         0.003722         0.150988
 C         2.419399         1.144845         0.106877
 C         3.272537        -0.154976         0.169126
 C         2.371051        -0.680077        -0.997525
 O         4.568335        -0.223763         0.611007
 C         4.258456        -0.134432         2.091043
 O         2.832724        -0.284096         2.351575
 C         2.225968        -0.751299         1.206049
 H        -0.623774         0.432150         0.778604
 H        -0.366155         0.303049        -1.008908
 H        -0.424644        -1.112913         0.114070
 H         2.700144         1.635082        -0.855579
 H         2.617690         1.864873         0.946899
 H         2.222500        -0.345420        -2.086732
 H         2.317098        -1.817297        -1.003728
 H         4.856015        -1.035419         2.387454
 H         4.504725         0.769883         2.639450
 H         1.936023        -1.842406         1.271649
