19
Iteration:   906
 C        -0.106369        -0.007389         0.162101
 C         1.396373        -0.009356         0.136731
 C         2.393885         1.167114         0.155459
 C         3.204643        -0.187650         0.104269
 C         2.320150        -0.660975        -1.084309
 O         4.605978        -0.312811         0.688682
 C         4.245392         0.000643         2.002947
 O         2.817073        -0.391230         2.330756
 C         2.306702        -0.843626         1.120336
 H        -0.584787         0.433179         1.091168
 H        -0.454008         0.570324        -0.675339
 H        -0.472239        -1.111559         0.191437
 H         2.509889         1.762057        -0.810346
 H         2.383905         1.738192         1.074698
 H         2.229070        -0.072065        -2.026982
 H         2.107409        -1.680584        -1.185788
 H         4.845851        -0.424095         2.847401
 H         4.322261         1.117303         2.206981
 H         2.133426        -1.928203         1.017051
