19
Iteration:  1903charge 0 multiplicity 1
 C        -0.176244         0.126934         0.083377
 C         1.404028        -0.103011         0.098852
 C         2.378291         1.142728         0.094981
 C         3.197445        -0.198549         0.134034
 C         2.465536        -0.725816        -0.989627
 O         4.509941        -0.282109         0.672229
 C         4.242915        -0.056699         2.022040
 O         2.889597        -0.334545         2.337911
 C         2.246181        -0.837155         1.196547
 H        -0.335961         0.874795         0.902375
 H        -0.590453         0.381941        -0.879466
 H        -0.700118        -0.795118         0.371520
 H         2.463250         1.656222        -0.894504
 H         2.388024         1.942767         0.972166
 H         2.469737        -0.211737        -1.989038
 H         2.382524        -1.806795        -1.093049
 H         4.863034        -0.705615         2.528291
 H         4.352690         0.982806         2.329702
 H         2.132540        -1.987154         1.121389
