19
Iteration:  3714charge 0 multiplicity 1
 C        -0.091820         0.026182        -0.006911
 C         1.380596        -0.143192         0.124399
 C         2.347039         1.128750         0.039764
 C         3.292606        -0.109798         0.100354
 C         2.311682        -0.843279        -0.923745
 O         4.518144        -0.002505         0.688355
 C         4.176044        -0.282369         2.189533
 O         2.797293        -0.218994         2.328328
 C         2.433936        -0.812341         1.142822
 H        -0.500936         0.257070         0.911491
 H        -0.288460         0.809256        -0.657437
 H        -0.481338        -0.935343        -0.357912
 H         2.362922         1.688182        -0.902171
 H         2.180685         1.857272         0.825228
 H         2.543656        -0.258218        -1.785390
 H         2.225572        -1.942284        -0.973497
 H         4.418677        -1.341204         2.103358
 H         4.788268         0.462522         2.747940
 H         2.415727        -1.956088         1.043964
