19
Iteration:  1386
 C        -0.170112         0.098610         0.146265
 C         1.352956        -0.085866         0.035991
 C         2.333523         1.115636         0.024303
 C         3.251459        -0.119144         0.133158
 C         2.429387        -0.859384        -0.958641
 O         4.577393        -0.008833         0.576181
 C         4.250137        -0.353682         2.033645
 O         2.816843        -0.336471         2.487325
 C         2.289048        -0.694448         1.134884
 H        -0.389005         0.676580         1.035616
 H        -0.447167         0.701981        -0.700497
 H        -0.864494        -0.746220        -0.019162
 H         2.377280         1.632136        -0.919830
 H         2.273366         1.796258         0.895961
 H         2.678316        -0.427648        -1.929328
 H         2.491268        -1.893707        -0.928069
 H         4.710026        -1.279308         2.299066
 H         4.736196         0.366728         2.705176
 H         2.202859        -1.862098         1.162957
