19
Iteration:  2339charge 0 multiplicity 1
 C        -0.125919         0.040496         0.010165
 C         1.377352        -0.038427        -0.003121
 C         2.280568         1.154032        -0.004224
 C         3.189315        -0.188329         0.194277
 C         2.378160        -0.807564        -0.958992
 O         4.507708        -0.166381         0.663359
 C         4.347720        -0.209579         2.097160
 O         2.913215        -0.317937         2.384157
 C         2.296870        -0.692296         1.244864
 H        -0.527380         0.464473         0.937151
 H        -0.484131         0.625756        -0.785570
 H        -0.481104        -0.935905        -0.181702
 H         2.369890         1.921142        -0.833513
 H         2.117502         1.715762         0.954477
 H         2.451689        -0.482292        -1.987498
 H         2.344467        -1.951067        -0.879281
 H         4.857537        -1.092229         2.505095
 H         4.565364         0.791800         2.571332
 H         2.039820        -1.752283         1.191478
