19
Iteration:  3749charge 0 multiplicity 1
 C        -0.188423        -0.028367         0.005985
 C         1.371481        -0.084071        -0.012942
 C         2.323440         1.145510         0.039807
 C         3.250899        -0.129297         0.206131
 C         2.445220        -0.802593        -0.982434
 O         4.506029        -0.078820         0.671270
 C         4.232214        -0.277153         2.157743
 O         2.883025        -0.220751         2.386188
 C         2.322078        -0.730644         1.115792
 H        -0.427742         0.477677         0.880292
 H        -0.638672         0.336000        -0.804752
 H        -0.622610        -1.031476         0.167850
 H         2.516635         1.774097        -0.846250
 H         2.149544         1.601321         1.041548
 H         2.646320        -0.272782        -1.935303
 H         2.354449        -1.807436        -1.272991
 H         4.637625        -1.256528         2.542806
 H         4.808269         0.359501         2.837278
 H         2.182680        -1.842227         1.320048
