19
Iteration:  1310
 C        -0.085738        -0.132782         0.036777
 C         1.400674         0.028504         0.121606
 C         2.396950         1.231339         0.211543
 C         3.198425        -0.157633         0.130192
 C         2.364943        -0.635857        -0.977825
 O         4.460806        -0.414725         0.625387
 C         4.318464        -0.115346         2.064397
 O         2.900989        -0.284033         2.299999
 C         2.208268        -0.718798         1.122736
 H        -0.616159         0.393187         0.897290
 H        -0.557479         0.275359        -0.874483
 H        -0.319579        -1.284591        -0.023992
 H         2.479362         1.962536        -0.524575
 H         2.472056         1.762338         1.176808
 H         2.445047         0.015133        -1.878229
 H         2.079993        -1.682544        -1.094929
 H         4.915153        -0.816456         2.659820
 H         4.578620         0.977180         2.335722
 H         2.025023        -1.766016         1.216453
