19
Iteration:  2752
 C        -0.128215         0.055638         0.028624
 C         1.433772        -0.067590        -0.058480
 C         2.357312         1.211592         0.121211
 C         3.208429        -0.081048         0.167388
 C         2.387983        -0.831752        -1.013299
 O         4.524752        -0.205721         0.714789
 C         4.236310        -0.101931         2.086931
 O         2.827020        -0.371424         2.439434
 C         2.315784        -0.813707         1.097424
 H        -0.473548         0.643436         0.832960
 H        -0.670773         0.358545        -0.793087
 H        -0.398385        -0.973428         0.286726
 H         2.349765         1.754917        -0.774109
 H         2.226894         1.775315         1.002433
 H         2.378909        -0.319760        -2.002431
 H         2.288267        -1.943867        -1.113313
 H         4.920312        -0.877482         2.569982
 H         4.450812         0.921881         2.406226
 H         2.477002        -1.905880         1.174133
