19
Iteration:  4158
 C        -0.154851         0.055207        -0.066177
 C         1.407883        -0.083294         0.064991
 C         2.354955         1.112587         0.098166
 C         3.252297        -0.190489         0.129324
 C         2.381813        -0.723952        -0.993195
 O         4.508014        -0.266360         0.713201
 C         4.244061         0.123278         2.047073
 O         2.886578        -0.495326         2.513486
 C         2.267103        -0.826697         1.127334
 H        -0.404957         0.909044         0.687725
 H        -0.353297         0.507521        -1.122450
 H        -0.652426        -0.854217         0.181554
 H         2.351705         1.742962        -0.836878
 H         2.334168         1.650124         1.081775
 H         2.478013        -0.073102        -1.868904
 H         2.327858        -1.786040        -1.153009
 H         5.126095        -0.196003         2.575607
 H         4.096854         1.245144         2.061441
 H         2.258029        -1.919730         1.097958
