19
Iteration:  2907charge 0 multiplicity 1
 C        -0.082994         0.025006        -0.000883
 C         1.422836        -0.116196         0.103258
 C         2.305829         1.181016         0.201306
 C         3.224288        -0.108744         0.162417
 C         2.407761        -0.782767        -0.995703
 O         4.511375        -0.161637         0.664959
 C         4.236591        -0.151683         2.124547
 O         2.815001        -0.285563         2.302241
 C         2.302728        -0.864988         1.104765
 H        -0.251377         0.937410         0.658612
 H        -0.368688         0.412182        -0.942265
 H        -0.595719        -0.895246         0.305154
 H         2.366512         1.551415        -0.798745
 H         2.160423         1.909139         0.969030
 H         2.463568        -0.285349        -2.087073
 H         2.322263        -1.871826        -1.101096
 H         4.763120        -0.981041         2.725274
 H         4.560726         0.847431         2.449184
 H         2.464050        -1.994309         1.163898
