19
Iteration:  2666charge 0 multiplicity 1
 C        -0.185440        -0.032087        -0.001060
 C         1.334325        -0.062420         0.075972
 C         2.370856         1.128578         0.041309
 C         3.218833        -0.139965         0.169552
 C         2.467966        -0.683517        -0.963057
 O         4.488446        -0.272321         0.678960
 C         4.319036        -0.088316         2.095258
 O         2.823991        -0.291949         2.384356
 C         2.323538        -0.757176         1.184320
 H        -0.653986         0.318205         0.960785
 H        -0.315537         0.602709        -0.844494
 H        -0.664461        -1.012004        -0.300816
 H         2.418607         1.721713        -0.820844
 H         2.382618         1.774636         0.868201
 H         2.486236        -0.130890        -1.907040
 H         2.271943        -1.730043        -1.074772
 H         4.700209        -1.062740         2.466169
 H         4.764625         0.725755         2.546713
 H         2.333682        -1.905294         1.083141
