19
Iteration:   700
 C        -0.180377        -0.032947         0.005070
 C         1.290828        -0.114387         0.117047
 C         2.357036         1.142779         0.105172
 C         3.242872        -0.098906         0.206505
 C         2.285020        -0.692430        -1.000449
 O         4.545143        -0.252040         0.639568
 C         4.328880        -0.198150         2.086581
 O         2.889707        -0.232148         2.354840
 C         2.351809        -0.751225         1.173374
 H        -0.562951         0.358812         0.915308
 H        -0.383423         0.662695        -0.728713
 H        -0.595419        -1.073459        -0.243817
 H         2.466986         1.804277        -0.842892
 H         2.219242         1.891351         0.901358
 H         2.341061        -0.163648        -2.055537
 H         2.273752        -1.775230        -1.042269
 H         4.804569        -1.049867         2.454155
 H         4.904215         0.620651         2.527812
 H         2.374832        -1.929613         1.101023
