19
Iteration:  3452charge 0 multiplicity 1
 C        -0.167299         0.034162        -0.048672
 C         1.402592        -0.070277         0.091754
 C         2.313357         1.116164         0.092122
 C         3.319040        -0.163042         0.188318
 C         2.317751        -0.773550        -0.916424
 O         4.547381        -0.080978         0.649559
 C         4.260906        -0.177548         2.155094
 O         2.841937        -0.314349         2.317940
 C         2.344937        -0.798105         1.105654
 H        -0.509718         0.838081         0.610937
 H        -0.538488         0.252626        -1.052098
 H        -0.511443        -1.028913         0.195401
 H         2.294560         1.717337        -0.842076
 H         2.255933         1.594994         1.098082
 H         2.418770        -0.270932        -1.879686
 H         2.223780        -1.943397        -0.980026
 H         4.712675        -1.050651         2.625636
 H         4.663058         0.737210         2.695873
 H         2.183578        -1.875034         1.244842
