19
Iteration:  1722charge 0 multiplicity 1
 C        -0.115527        -0.082481         0.085875
 C         1.425144        -0.022971         0.040540
 C         2.275193         1.257137        -0.047961
 C         3.238482        -0.105218         0.159634
 C         2.395446        -0.713712        -0.953812
 O         4.559466        -0.287011         0.633207
 C         4.211246        -0.389597         2.123168
 O         2.881202        -0.170120         2.399528
 C         2.296389        -0.612057         1.174926
 H        -0.453603         0.407482         1.028383
 H        -0.705037         0.202677        -0.789351
 H        -0.323349        -1.086145         0.438733
 H         2.248859         1.669086        -1.040917
 H         2.307657         1.878538         0.783616
 H         2.446660        -0.303998        -1.978304
 H         2.412650        -1.804858        -0.929851
 H         4.374687        -1.466704         2.314496
 H         4.706496         0.295483         2.759124
 H         2.136047        -1.785069         1.113965
