19
Iteration:  2278
 C        -0.094563        -0.073902         0.080205
 C         1.401305        -0.059027         0.031380
 C         2.467089         1.160062         0.161954
 C         3.233277        -0.207038         0.132610
 C         2.294364        -0.655965        -1.028376
 O         4.489601        -0.317678         0.646426
 C         4.273101        -0.116582         2.114638
 O         2.800362        -0.128543         2.345047
 C         2.313330        -0.840803         1.134335
 H        -0.559719         0.541402         0.975700
 H        -0.469123         0.442468        -0.882611
 H        -0.542582        -1.097231         0.044624
 H         2.501413         1.778418        -0.727669
 H         2.359581         1.609892         1.117198
 H         2.164245        -0.246870        -2.067327
 H         2.227597        -1.732035        -0.964464
 H         4.987620        -0.889234         2.664796
 H         4.671296         0.892394         2.450262
 H         2.278153        -1.984070         1.215579
