19
Iteration:  3779charge 0 multiplicity 1
 C        -0.071846        -0.147241        -0.023790
 C         1.423306        -0.048913         0.165572
 C         2.354935         1.202950         0.080822
 C         3.249780        -0.050242         0.184692
 C         2.331614        -0.723268        -1.008626
 O         4.546781        -0.252606         0.689471
 C         4.283870        -0.236573         2.116203
 O         2.797479        -0.224691         2.342706
 C         2.300060        -0.679654         1.094068
 H        -0.732653         0.554240         0.453546
 H        -0.448711        -0.089814        -1.123114
 H        -0.418550        -1.193988         0.312494
 H         2.417395         1.785261        -0.831042
 H         2.252284         1.719898         1.021509
 H         2.308001        -0.147306        -1.948133
 H         2.299056        -1.827891        -1.045162
 H         4.524034        -1.241799         2.575419
 H         4.629240         0.704571         2.665884
 H         2.119351        -1.769231         1.310745
