19
Iteration:  3169charge 0 multiplicity 1
 C        -0.052490         0.026213        -0.056815
 C         1.354592        -0.099189         0.113525
 C         2.257487         1.176125         0.139005
 C         3.225203        -0.148568         0.189457
 C         2.431521        -0.791212        -0.949986
 O         4.580192        -0.188828         0.620955
 C         4.252478        -0.057464         2.079234
 O         2.795796        -0.365128         2.381944
 C         2.345688        -0.810956         1.167467
 H        -0.563066         0.355416         0.921667
 H        -0.380009         0.909729        -0.641727
 H        -0.694734        -0.823042        -0.401711
 H         2.294568         1.599495        -0.873442
 H         2.284805         2.014845         0.870878
 H         2.385953        -0.477749        -1.975820
 H         2.305347        -1.846926        -0.911325
 H         4.881825        -0.869787         2.474396
 H         4.476889         0.955452         2.484658
 H         2.136319        -1.843212         1.040090
