19
Iteration:   727
 C        -0.129809        -0.168241         0.071828
 C         1.325343         0.009147         0.137854
 C         2.350231         1.185066         0.101894
 C         3.238043        -0.199385         0.122630
 C         2.371103        -0.688638        -1.080819
 O         4.536999        -0.208312         0.641582
 C         4.272764        -0.349264         2.099855
 O         2.883391        -0.072269         2.350819
 C         2.282885        -0.686698         1.186834
 H        -0.491416         0.333957         1.033549
 H        -0.623042         0.200038        -0.935806
 H        -0.220031        -1.202269         0.020307
 H         2.370279         1.974488        -0.573505
 H         2.489373         1.588412         1.125221
 H         2.225654        -0.125494        -1.970696
 H         2.220453        -1.837120        -1.214942
 H         4.474486        -1.490649         2.250552
 H         5.065745         0.195905         2.630599
 H         2.149878        -1.703090         1.287221
