19
Iteration:  1867charge 0 multiplicity 1
 C        -0.122989        -0.013583         0.016633
 C         1.351430         0.012357         0.098409
 C         2.388718         1.202367         0.218012
 C         3.309173        -0.253824         0.111418
 C         2.285489        -0.662059        -1.006165
 O         4.595879        -0.412074         0.717041
 C         4.201569        -0.027576         1.999417
 O         2.874350        -0.262707         2.285219
 C         2.279111        -0.812564         1.178366
 H        -0.546874         0.491561         0.851698
 H        -0.604243         0.440881        -0.869930
 H        -0.418096        -1.084688         0.203113
 H         2.465486         1.780051        -0.684646
 H         2.552923         1.721954         1.145208
 H         2.296696        -0.130549        -1.961751
 H         1.976081        -1.725175        -1.089692
 H         4.843208        -0.492032         2.771806
 H         4.381595         1.053901         2.010524
 H         2.138669        -1.953229         1.405521
