19
Iteration:  2713
 C        -0.188233        -0.069896        -0.053200
 C         1.351612        -0.022783         0.120651
 C         2.424800         1.142940         0.201000
 C         3.272408        -0.143055         0.123993
 C         2.321693        -0.701080        -0.999661
 O         4.531868        -0.248711         0.712669
 C         4.254499        -0.184059         2.084937
 O         2.797929        -0.214694         2.350025
 C         2.355322        -0.812922         1.129293
 H        -0.608804         0.503593         0.899515
 H        -0.413025         0.118573        -1.180701
 H        -0.573180        -1.101492         0.123292
 H         2.537173         1.717811        -0.821068
 H         2.525821         1.983901         0.984310
 H         2.493841        -0.139769        -1.967103
 H         2.301660        -1.774593        -1.153184
 H         4.956832        -0.741335         2.676212
 H         4.517760         0.895957         2.382601
 H         2.389673        -1.903343         0.986835
