19
Iteration:  1257
 C        -0.099010         0.199130         0.159618
 C         1.412716        -0.045810         0.105095
 C         2.353898         1.077347         0.170746
 C         3.241495        -0.228386         0.081403
 C         2.354105        -0.757368        -1.056028
 O         4.518431        -0.091609         0.659808
 C         4.185531        -0.069480         2.065806
 O         2.902851        -0.474222         2.346640
 C         2.287951        -0.870828         1.084685
 H        -0.561488         0.784461         0.939912
 H        -0.415964         0.548405        -0.838655
 H        -0.521034        -0.887136         0.252487
 H         2.503092         1.645976        -0.725201
 H         2.516787         1.692854         1.042060
 H         2.329493        -0.191617        -2.035645
 H         2.332769        -1.921435        -1.111186
 H         4.781233        -0.748297         2.666420
 H         4.275555         1.003264         2.359437
 H         2.095478        -1.878823         1.222514
