19
Iteration:  3465
 C        -0.100573        -0.030657        -0.046445
 C         1.349915        -0.071155         0.107626
 C         2.354978         1.162410         0.127654
 C         3.199247        -0.220856         0.094051
 C         2.353760        -0.756577        -0.988917
 O         4.549564        -0.123569         0.699142
 C         4.232842        -0.143376         2.088614
 O         2.843767        -0.285647         2.413401
 C         2.341889        -0.819369         1.177470
 H        -0.572127         0.666297         0.743558
 H        -0.248454         0.460425        -1.027941
 H        -0.703063        -0.902207         0.041629
 H         2.534829         1.760075        -0.791733
 H         2.451027         1.920587         0.948326
 H         2.262068        -0.225771        -1.943581
 H         2.351090        -1.899479        -1.260993
 H         4.851892        -0.994133         2.435105
 H         4.575150         0.954029         2.523042
 H         2.332316        -1.983415         1.031611
