19
Iteration:  3704
 C        -0.099413        -0.016725         0.026164
 C         1.407682        -0.104864         0.069760
 C         2.361954         1.063741         0.074582
 C         3.272766        -0.083558         0.142556
 C         2.303589        -0.803305        -0.980909
 O         4.554314        -0.015478         0.660522
 C         4.196662        -0.297667         2.192417
 O         2.834831        -0.211591         2.360570
 C         2.310061        -0.749440         1.083512
 H        -0.685329         0.230732         0.817309
 H        -0.340584         0.704683        -0.624940
 H        -0.558707        -0.872662        -0.483922
 H         2.407130         1.515446        -0.918405
 H         2.367166         1.661519         0.980428
 H         2.226689        -0.521150        -2.052930
 H         2.512337        -1.845274        -0.859413
 H         4.682676        -1.271109         2.459387
 H         4.607998         0.419113         2.941855
 H         2.428661        -1.818733         1.318962
