19
Iteration:  4243charge 0 multiplicity 1
 C        -0.168368        -0.050743         0.046740
 C         1.339742        -0.073262         0.024863
 C         2.356731         1.116411         0.136983
 C         3.245996        -0.107717         0.103922
 C         2.482809        -0.807111        -1.003811
 O         4.558919        -0.183347         0.681883
 C         4.270134        -0.250411         2.106155
 O         2.770538        -0.129768         2.361970
 C         2.294766        -0.714727         1.176286
 H        -0.713407         0.174821         0.989806
 H        -0.638938         0.472424        -0.664118
 H        -0.530118        -0.965855        -0.254600
 H         2.507503         1.754732        -0.715129
 H         2.333960         1.664461         1.033017
 H         2.621066        -0.507365        -2.090076
 H         2.616959        -1.846404        -1.135880
 H         4.619388        -1.224815         2.464593
 H         4.703214         0.580277         2.618690
 H         2.259513        -1.776240         1.172633
