19
Iteration:  2317charge 0 multiplicity 1
 C        -0.258598        -0.018919        -0.008673
 C         1.349931        -0.077900         0.077911
 C         2.401381         1.152273         0.084734
 C         3.263888        -0.125933         0.159692
 C         2.390252        -0.747996        -0.976315
 O         4.522727        -0.267943         0.618114
 C         4.328440        -0.140661         2.134301
 O         2.870294        -0.208956         2.459070
 C         2.285882        -0.791262         1.068293
 H        -0.495525         0.371724         0.977641
 H        -0.673151         0.668927        -0.679305
 H        -0.712752        -0.979252        -0.134046
 H         2.577796         1.759522        -0.848422
 H         2.457209         1.861948         0.963765
 H         2.334527        -0.393187        -1.996513
 H         2.273160        -1.887386        -0.965824
 H         4.677288        -1.047300         2.531264
 H         4.733825         0.816936         2.519681
 H         2.320297        -1.880477         1.131659
