19
Iteration:  2054charge 0 multiplicity 1
 C        -0.051067         0.022616         0.015153
 C         1.321312        -0.063744         0.057717
 C         2.338206         1.213750         0.048871
 C         3.212344        -0.119130         0.156951
 C         2.343989        -0.841189        -0.930153
 O         4.526199        -0.113531         0.617387
 C         4.286107        -0.376132         2.071126
 O         2.874623        -0.195226         2.396671
 C         2.304061        -0.760675         1.185473
 H        -0.469054         0.758835         0.711511
 H        -0.368617         0.377692        -0.992528
 H        -0.390984        -0.988319         0.442767
 H         2.467011         1.774648        -0.806351
 H         2.201090         1.858267         0.947005
 H         2.156244        -0.481508        -1.998215
 H         2.220297        -1.931729        -0.979331
 H         4.889436        -1.295297         2.455070
 H         4.760103         0.427637         2.661463
 H         1.977510        -1.803131         1.283672
