19
Iteration:  1521
 C        -0.114766         0.097183        -0.020599
 C         1.329822        -0.112869         0.151408
 C         2.417491         1.077724         0.127975
 C         3.161342        -0.161218         0.158407
 C         2.281143        -0.797342        -1.006223
 O         4.563276        -0.178727         0.592346
 C         4.383557        -0.064072         2.105660
 O         2.796919        -0.327450         2.373918
 C         2.295584        -0.799924         1.170146
 H        -0.353148         0.664079         0.873423
 H        -0.344888         0.947592        -0.710978
 H        -0.670977        -0.870585        -0.309367
 H         2.515833         1.739860        -0.677679
 H         2.423268         1.560776         1.053107
 H         2.413429        -0.347496        -1.922219
 H         2.242718        -1.860945        -0.749961
 H         4.958806        -0.902137         2.528931
 H         4.757509         0.918662         2.493815
 H         2.154655        -1.973049         0.931885
