19
Iteration:   380charge 0 multiplicity 1
 C        -0.184607         0.087747         0.031429
 C         1.356053        -0.080811         0.097760
 C         2.401916         1.082331         0.065729
 C         3.258483        -0.241304         0.186267
 C         2.337430        -0.747180        -0.923456
 O         4.542996        -0.141194         0.645618
 C         4.275509        -0.027278         2.076422
 O         2.895857        -0.394108         2.319334
 C         2.264865        -0.838070         1.158289
 H        -0.445717         0.441030         1.095145
 H        -0.400852         0.898655        -0.608807
 H        -0.760681        -0.716920        -0.313432
 H         2.663714         1.628627        -0.853057
 H         2.296846         1.781719         0.910681
 H         2.330963        -0.293941        -1.892193
 H         2.171048        -1.823534        -1.024307
 H         4.883066        -0.641942         2.667358
 H         4.482144         1.015241         2.275650
 H         2.158644        -1.901643         1.207200
