19
Iteration:  4334charge 0 multiplicity 1
 C        -0.087011        -0.085113         0.015183
 C         1.404457        -0.070575         0.120340
 C         2.275066         1.141927         0.070915
 C         3.210049        -0.083685         0.088859
 C         2.483571        -0.773787        -0.979375
 O         4.544121        -0.149335         0.669830
 C         4.256513        -0.334381         2.093283
 O         2.800400        -0.163371         2.405866
 C         2.248934        -0.698934         1.177073
 H        -0.359520         0.863339         0.387480
 H        -0.178092        -0.054238        -1.117755
 H        -0.721144        -0.914933         0.261654
 H         2.204606         1.991757        -0.682751
 H         2.345500         1.767587         1.046158
 H         2.450244        -0.577627        -2.034869
 H         2.431940        -1.929169        -1.105496
 H         4.720365        -1.351331         2.254706
 H         4.855586         0.479069         2.635202
 H         2.150779        -1.752456         1.327074
