19
Iteration:  2662
 C        -0.245881        -0.010682         0.010824
 C         1.396314        -0.096061         0.049897
 C         2.392727         1.125915         0.030559
 C         3.232413        -0.071198         0.165087
 C         2.411698        -0.719905        -0.974972
 O         4.512722        -0.266689         0.689891
 C         4.288763        -0.100441         2.132328
 O         2.841828        -0.289153         2.392529
 C         2.290872        -0.781671         1.188548
 H        -0.644680         0.259065         0.922793
 H        -0.341685         0.643588        -0.878387
 H        -0.616250        -0.971291        -0.298984
 H         2.450616         1.735686        -0.905055
 H         2.426972         1.762172         0.959205
 H         2.370178        -0.042613        -1.836898
 H         2.353591        -1.884460        -1.172774
 H         4.812599        -1.088412         2.370575
 H         4.839283         0.868056         2.526435
 H         2.384441        -1.885443         0.987194
