19
Iteration:  1712charge 0 multiplicity 1
 C        -0.012086        -0.112990         0.129663
 C         1.375793         0.017208         0.032059
 C         2.256203         1.248478        -0.051066
 C         3.233811        -0.082373         0.147777
 C         2.380423        -0.755079        -0.947392
 O         4.501350        -0.253264         0.704724
 C         4.324114        -0.456294         2.082170
 O         2.814281        -0.136674         2.367809
 C         2.296652        -0.638421         1.180317
 H        -0.405126         0.612035         0.877326
 H        -0.404986         0.260855        -0.855830
 H        -0.400372        -1.134430         0.111071
 H         2.375886         1.862379        -0.956494
 H         2.123048         1.939706         0.715298
 H         2.354646        -0.317408        -1.969556
 H         2.203473        -1.853241        -0.999271
 H         4.608805        -1.479423         2.371429
 H         4.965414         0.197526         2.582636
 H         2.183405        -1.830492         1.296945
