19
Iteration:   555
 C        -0.173709        -0.072979         0.013291
 C         1.368877        -0.049503         0.113814
 C         2.317829         1.221666        -0.001454
 C         3.220488        -0.067346         0.169525
 C         2.252306        -0.797684        -0.960220
 O         4.547901        -0.106664         0.663972
 C         4.297636        -0.456931         2.137403
 O         2.891338        -0.111365         2.385886
 C         2.399634        -0.758422         1.138612
 H        -0.664244         0.377428         0.924073
 H        -0.413171         0.487302        -0.786780
 H        -0.469995        -1.057285         0.005102
 H         2.288454         1.641043        -1.001236
 H         2.300219         1.941894         0.907296
 H         2.367175        -0.342271        -1.955596
 H         2.445913        -1.912839        -0.934635
 H         4.491582        -1.512514         2.181029
 H         4.920293         0.222959         2.665490
 H         2.423632        -1.913192         1.082549
