19
Iteration:   157charge 0 multiplicity 1
 C        -0.221889        -0.033387         0.042258
 C         1.356617        -0.010965         0.038571
 C         2.416236         1.104953         0.172666
 C         3.237298        -0.290734         0.153659
 C         2.334544        -0.589553        -1.022726
 O         4.587643        -0.289478         0.658504
 C         4.252084        -0.023696         2.041653
 O         2.871425        -0.324790         2.439084
 C         2.293382        -0.824597         1.100189
 H        -0.646537         0.285979         0.902369
 H        -0.640476         0.700898        -0.845749
 H        -0.551941        -1.094576         0.154575
 H         2.665793         1.833032        -0.715591
 H         2.479795         1.795473         1.125301
 H         2.650492        -0.159879        -2.047739
 H         2.112937        -1.670085        -1.347045
 H         4.947566        -0.398966         2.771884
 H         4.308713         1.096108         2.090632
 H         2.225024        -1.898160         1.250330
