19
Iteration:  4787charge 0 multiplicity 1
 C        -0.145578        -0.092013        -0.060382
 C         1.374605         0.005601         0.079333
 C         2.425937         1.132839         0.136520
 C         3.271601        -0.254139         0.146387
 C         2.284295        -0.651182        -1.028222
 O         4.559208        -0.286463         0.729150
 C         4.250621        -0.006005         2.064166
 O         2.808224        -0.304555         2.405533
 C         2.337873        -0.772802         1.179725
 H        -0.664584        -0.046812         0.969976
 H        -0.440900         0.752835        -0.616362
 H        -0.517252        -1.086051        -0.403651
 H         2.491441         1.667605        -0.824208
 H         2.602445         1.573003         1.100495
 H         2.280330        -0.108489        -2.019594
 H         2.171201        -1.627101        -1.366369
 H         4.874671        -0.649012         2.546242
 H         4.467935         1.134951         2.259796
 H         2.178646        -1.850951         1.208007
