19
Iteration:  1143
 C        -0.127503        -0.099729         0.045671
 C         1.354689         0.020235         0.140200
 C         2.335461         1.121805         0.197622
 C         3.226872        -0.135744         0.128231
 C         2.256736        -0.563234        -1.025172
 O         4.634611        -0.313194         0.609775
 C         4.307805        -0.209007         2.087385
 O         2.838757        -0.248858         2.337928
 C         2.308055        -0.779645         1.165671
 H        -0.787159         0.477806         0.874662
 H        -0.410997         0.332613        -0.980054
 H        -0.397517        -1.154658         0.102650
 H         2.280470         1.819783        -0.709825
 H         2.455951         1.775857         1.046205
 H         2.443619        -0.015470        -1.979101
 H         2.224413        -1.660300        -1.170712
 H         4.640981        -1.133347         2.640353
 H         4.776534         0.776557         2.286270
 H         2.171425        -1.827896         1.065537
