19
Iteration:  4122charge 0 multiplicity 1
 C        -0.131426         0.041538        -0.145143
 C         1.319820        -0.130854         0.083017
 C         2.362548         1.077931         0.218374
 C         3.296959        -0.193162         0.176508
 C         2.328328        -0.762097        -0.940100
 O         4.538914        -0.190874         0.686920
 C         4.314496        -0.006273         2.081815
 O         2.862268        -0.322943         2.393031
 C         2.290693        -0.794445         1.092162
 H        -0.633490         0.874497         0.547558
 H        -0.391862         0.236626        -1.195056
 H        -0.789483        -0.855975         0.089064
 H         2.293487         1.884619        -0.528024
 H         2.503928         1.603542         1.165336
 H         2.319950        -0.220880        -2.059301
 H         2.245600        -1.899392        -1.082882
 H         5.014867        -0.662367         2.634971
 H         4.444232         0.970170         2.499609
 H         2.114720        -1.851259         1.066667
