19
Iteration:  1837charge 0 multiplicity 1
 C        -0.115290         0.022350         0.001582
 C         1.387412        -0.023526         0.104016
 C         2.457669         1.148857         0.094183
 C         3.249014        -0.166554         0.101836
 C         2.305023        -0.704832        -1.006375
 O         4.503125        -0.337394         0.658090
 C         4.267182        -0.060948         2.003744
 O         2.820909        -0.329855         2.467945
 C         2.310035        -0.754645         1.207074
 H        -0.611331         0.191020         0.971134
 H        -0.602092         0.596622        -0.785243
 H        -0.535130        -1.007436        -0.170086
 H         2.477404         1.756582        -0.828198
 H         2.639496         1.693450         1.126377
 H         2.214566        -0.182098        -2.001554
 H         2.103429        -1.783284        -1.128247
 H         4.951293        -0.615015         2.507622
 H         4.441202         1.021528         2.079900
 H         2.318866        -1.873934         1.356521
