19
Iteration:  2033
 C        -0.197534        -0.111361         0.008286
 C         1.315410         0.059521         0.150382
 C         2.449695         1.099535         0.022926
 C         3.231192        -0.128976         0.135806
 C         2.302623        -0.765619        -0.967641
 O         4.547669        -0.123169         0.690338
 C         4.310110        -0.366575         2.055138
 O         2.865680        -0.180851         2.370841
 C         2.279902        -0.646316         1.189714
 H        -0.743535         0.505279         0.736439
 H        -0.548097         0.267308        -0.937169
 H        -0.453740        -1.161078         0.219074
 H         2.497824         1.631855        -0.864070
 H         2.696376         1.779715         0.858206
 H         2.525336        -0.437356        -2.010681
 H         2.049931        -1.826772        -0.971841
 H         4.564803        -1.499902         2.387260
 H         4.981594         0.283929         2.645517
 H         2.431004        -1.692191         1.039790
