19
Iteration:  4095charge 0 multiplicity 1
 C        -0.091401        -0.055483        -0.030112
 C         1.360013        -0.020115         0.034336
 C         2.333182         1.133040         0.101035
 C         3.252547        -0.165088         0.223978
 C         2.406928        -0.705898        -0.969981
 O         4.497551        -0.207127         0.663982
 C         4.264217        -0.189008         2.082794
 O         2.849597        -0.188411         2.404667
 C         2.276276        -0.825542         1.141331
 H        -0.646688         0.357864         0.693549
 H        -0.511838         0.337721        -0.968787
 H        -0.389764        -1.088683        -0.011716
 H         2.501942         1.787487        -0.766740
 H         2.228599         1.852212         0.933981
 H         2.493952        -0.253700        -1.922368
 H         2.349126        -1.812885        -1.000404
 H         4.858991        -1.034809         2.473186
 H         4.616090         0.745743         2.612911
 H         2.236825        -1.965168         1.074168
