19
Iteration:  1873
 C        -0.146759         0.009416         0.034051
 C         1.408260        -0.023714         0.061059
 C         2.374990         1.144729         0.204603
 C         3.311010        -0.255601         0.071493
 C         2.297246        -0.653173        -1.013263
 O         4.566299        -0.426254         0.685135
 C         4.246166         0.006244         1.996218
 O         2.837047        -0.256478         2.383946
 C         2.277495        -0.802202         1.177876
 H        -0.434913         0.660372         0.925351
 H        -0.616502         0.336193        -0.905259
 H        -0.319173        -1.044815         0.169191
 H         2.510210         1.968600        -0.570702
 H         2.387287         1.732617         1.163257
 H         2.258754        -0.151215        -1.990649
 H         1.997114        -1.698272        -1.175818
 H         4.912269        -0.601126         2.722339
 H         4.341357         1.108960         2.177635
 H         2.206229        -1.851028         1.207394
