19
Iteration:   761charge 0 multiplicity 1
 C        -0.129926        -0.142585         0.110664
 C         1.367639         0.007920         0.106046
 C         2.290896         1.234191        -0.037058
 C         3.266705        -0.040172         0.171256
 C         2.347178        -0.714592        -0.930061
 O         4.588840        -0.129015         0.659793
 C         4.264790        -0.477412         2.119367
 O         2.887341        -0.226799         2.309058
 C         2.283659        -0.649500         1.131606
 H        -0.545913         0.541988         0.972573
 H        -0.730723         0.058824        -0.849954
 H        -0.399622        -1.088151         0.517218
 H         2.305546         1.696970        -1.021895
 H         2.117626         1.958538         0.775177
 H         2.388746        -0.319906        -1.923196
 H         2.433735        -1.855157        -0.942695
 H         4.157421        -1.594615         2.145333
 H         5.012866         0.038360         2.792259
 H         2.269891        -1.689090         1.183248
