19
Iteration:  1356
 C        -0.122068         0.041428         0.027178
 C         1.384673        -0.066753         0.128878
 C         2.265109         1.144047         0.126331
 C         3.205640        -0.136620         0.142833
 C         2.252199        -0.750346        -1.000190
 O         4.542891        -0.187870         0.691844
 C         4.307962        -0.275503         2.103539
 O         2.972425        -0.237202         2.333155
 C         2.317968        -0.787207         1.115668
 H        -0.657525         0.475411         0.853853
 H        -0.206404         0.842204        -0.780687
 H        -0.643853        -0.927597        -0.410856
 H         2.273005         1.600154        -0.843984
 H         2.163786         1.846469         0.872097
 H         2.390168        -0.233990        -1.944606
 H         2.328997        -1.873869        -0.956246
 H         4.814769        -1.171007         2.519990
 H         4.651048         0.685645         2.626376
 H         2.221196        -1.814750         1.149565
