19
Iteration:  3073charge 0 multiplicity 1
 C        -0.123746        -0.093699         0.018725
 C         1.333680        -0.041625        -0.005059
 C         2.307492         1.094349         0.086885
 C         3.269762        -0.109709         0.131242
 C         2.376292        -0.728988        -0.978423
 O         4.620002        -0.149127         0.716196
 C         4.321512        -0.265323         2.188463
 O         2.820231        -0.252110         2.324575
 C         2.256084        -0.659224         1.165729
 H        -0.652028         0.677854         0.663612
 H        -0.795835         0.098437        -0.877152
 H        -0.673039        -0.988327         0.302993
 H         2.417990         1.590390        -0.866788
 H         2.374411         1.837646         0.892770
 H         2.399225        -0.127620        -1.874094
 H         2.329252        -1.856701        -1.273229
 H         4.670260        -1.247412         2.428481
 H         4.796325         0.532350         2.768879
 H         2.116229        -1.784861         1.106684
