19
Iteration:  4452
 C        -0.099229         0.089371        -0.045978
 C         1.408564        -0.090833         0.080012
 C         2.394542         1.050799         0.191010
 C         3.215670        -0.230176         0.231731
 C         2.330093        -0.746520        -1.000045
 O         4.533420        -0.221703         0.652070
 C         4.289207         0.128599         2.037430
 O         2.774720        -0.348805         2.384520
 C         2.322639        -0.913836         1.157001
 H        -0.467730         0.554675         0.947010
 H        -0.219646         0.781310        -0.943797
 H        -0.555099        -0.826551        -0.449841
 H         2.578275         1.565777        -0.734226
 H         2.318661         1.727586         1.084914
 H         2.395277        -0.201515        -1.975880
 H         2.045651        -1.829827        -1.289417
 H         4.975181        -0.529685         2.604850
 H         4.226715         1.130878         2.407740
 H         2.347440        -2.045783         1.167616
