19
Iteration:  1472
 C        -0.154371        -0.108389         0.015469
 C         1.353460        -0.042604         0.039763
 C         2.371521         1.195371         0.103803
 C         3.223061        -0.032177         0.134542
 C         2.390510        -0.710167        -0.989501
 O         4.502872        -0.313529         0.658930
 C         4.322785        -0.358118         2.045362
 O         2.867811        -0.134701         2.412376
 C         2.274179        -0.702660         1.210205
 H        -0.602964         0.522370         0.823170
 H        -0.580413         0.291150        -0.882557
 H        -0.371939        -1.130580         0.118504
 H         2.339275         1.786922        -0.880584
 H         2.389343         1.958348         0.993159
 H         2.124927        -0.074045        -1.902631
 H         2.470850        -1.794663        -1.056029
 H         4.800891        -1.356630         2.348810
 H         4.821691         0.545873         2.469922
 H         2.217643        -1.812935         1.326687
