19
Iteration:  3736
 C        -0.109479         0.003636         0.041725
 C         1.354031        -0.143411         0.037088
 C         2.301944         1.069025         0.044643
 C         3.244019        -0.115112         0.102046
 C         2.402965        -0.792455        -1.060493
 O         4.560914        -0.023232         0.759070
 C         4.303303        -0.306702         2.151141
 O         2.827126        -0.211313         2.378103
 C         2.262002        -0.741814         1.172778
 H        -0.489267         0.505603         0.863755
 H        -0.375803         0.684582        -0.757011
 H        -0.609529        -0.976193        -0.135612
 H         2.342417         1.608328        -0.911496
 H         2.227696         1.789692         0.870947
 H         2.394793        -0.289855        -2.025186
 H         2.573399        -1.844636        -0.907537
 H         4.631856        -1.377939         2.245006
 H         4.724245         0.553923         2.725359
 H         2.180418        -1.915015         1.187372
