19
Iteration:  3088
 C        -0.116746        -0.092430         0.040712
 C         1.392616        -0.058424         0.054876
 C         2.331692         1.214253         0.045275
 C         3.239684        -0.121764         0.175995
 C         2.421882        -0.689712        -1.021938
 O         4.527677        -0.219159         0.685497
 C         4.212754        -0.288910         2.089391
 O         2.819394        -0.164011         2.412520
 C         2.326486        -0.796314         1.123801
 H        -0.490862         0.552058         0.783960
 H        -0.488119         0.024236        -0.963092
 H        -0.470714        -1.119629         0.360204
 H         2.391737         2.000307        -0.802244
 H         2.122689         1.871050         0.943223
 H         2.527265        -0.198453        -1.996541
 H         2.427783        -1.797204        -0.955282
 H         4.726114        -1.242570         2.505426
 H         4.670816         0.630423         2.529648
 H         2.243001        -1.928707         1.143215
