19
Iteration:    38
 C        -0.228488        -0.158578        -0.002415
 C         1.300469         0.009130         0.133445
 C         2.289217         1.231415         0.113277
 C         3.224224        -0.096691         0.108562
 C         2.429187        -0.735906        -0.971292
 O         4.561015        -0.218389         0.694319
 C         4.307200        -0.491587         2.045430
 O         2.921489        -0.042593         2.328275
 C         2.345833        -0.629914         1.206497
 H        -0.872541         0.098045         0.829053
 H        -0.655393         0.321853        -1.050400
 H        -0.380528        -1.282020        -0.061654
 H         2.265322         1.798325        -0.824344
 H         2.344099         1.686979         1.115147
 H         2.498308        -0.176638        -1.940216
 H         2.376680        -1.843704        -0.986166
 H         4.266163        -1.676581         2.232605
 H         4.990592         0.124675         2.688313
 H         2.354123        -1.736255         1.249216
