19
Iteration:  4149charge 0 multiplicity 1
 C        -0.112373         0.096314        -0.095605
 C         1.364808        -0.111809         0.098836
 C         2.308031         1.178210         0.120736
 C         3.221455        -0.205015         0.183143
 C         2.358871        -0.713551        -1.021157
 O         4.520831        -0.275201         0.683222
 C         4.233260         0.104627         2.051854
 O         2.881318        -0.465860         2.465194
 C         2.400560        -0.866367         1.186506
 H        -0.438017         0.887364         0.596465
 H        -0.386278         0.274585        -1.204866
 H        -0.694420        -0.808113         0.093295
 H         2.290175         1.648782        -0.900390
 H         2.506164         1.875174         1.006388
 H         2.392874        -0.309862        -1.909185
 H         2.323237        -1.733401        -1.336359
 H         4.940341        -0.342550         2.748803
 H         4.019868         1.222604         2.288106
 H         2.233751        -2.004153         1.173188
