19
Iteration:  2824
 C        -0.154922        -0.032356        -0.025270
 C         1.362084        -0.010151         0.101220
 C         2.369618         1.153208         0.166083
 C         3.272911        -0.134346         0.095549
 C         2.411120        -0.712415        -0.980303
 O         4.581392        -0.324130         0.686773
 C         4.224452        -0.010463         2.091081
 O         2.853239        -0.297857         2.339110
 C         2.241777        -0.815038         1.147010
 H        -0.728585         0.141377         0.926743
 H        -0.622048         0.723575        -0.822559
 H        -0.474839        -1.101716        -0.286198
 H         2.453320         1.939227        -0.662891
 H         2.218836         1.541599         1.250253
 H         2.462082        -0.277164        -1.942694
 H         2.567204        -1.847998        -1.056204
 H         4.690654        -0.804568         2.622562
 H         4.540659         1.046765         2.361863
 H         2.131675        -2.016848         1.262870
