19
Iteration:  3980
 C        -0.138783        -0.017010        -0.119576
 C         1.377258        -0.040104         0.120603
 C         2.275414         1.143158         0.075949
 C         3.229248        -0.118288         0.165370
 C         2.377625        -0.787814        -0.979423
 O         4.527895        -0.117512         0.718601
 C         4.367295        -0.249893         2.067155
 O         2.805090        -0.292558         2.404847
 C         2.332737        -0.751627         1.141712
 H        -0.555119         0.772671         0.677748
 H        -0.383270         0.157619        -1.130810
 H        -0.624178        -0.985350         0.211378
 H         2.189598         1.779819        -0.820916
 H         2.327880         1.849586         0.913837
 H         2.406950        -0.366265        -1.991155
 H         2.315477        -1.785713        -0.775718
 H         4.970323        -1.081703         2.601341
 H         4.674563         0.599701         2.682874
 H         2.413018        -1.861549         1.209075
