19
Iteration:  1762
 C        -0.031769        -0.003074         0.048171
 C         1.390597        -0.005902         0.090065
 C         2.405590         1.088156         0.134913
 C         3.251739        -0.179956         0.068217
 C         2.237246        -0.753348        -0.994353
 O         4.547090        -0.166736         0.709322
 C         4.228505        -0.265577         2.092391
 O         2.835306        -0.168120         2.300646
 C         2.278337        -0.804469         1.167838
 H        -0.285696         0.679768         0.917779
 H        -0.518500         0.269382        -0.876138
 H        -0.441439        -0.979154         0.286618
 H         2.319735         1.708998        -0.749071
 H         2.371568         1.845150         0.990970
 H         2.400954        -0.245845        -1.963120
 H         2.212560        -1.802445        -1.204511
 H         4.660689        -1.234117         2.424263
 H         4.753649         0.664198         2.568669
 H         2.198913        -1.798532         1.369482
