19
Iteration:  2527
 C        -0.129326        -0.050088        -0.008092
 C         1.428194        -0.030912         0.060482
 C         2.416469         1.180364         0.100882
 C         3.168633        -0.181229         0.139766
 C         2.303195        -0.759697        -0.954604
 O         4.513656        -0.195057         0.698559
 C         4.336909        -0.172850         2.090654
 O         2.879467        -0.252059         2.382890
 C         2.255329        -0.796281         1.113256
 H        -0.648008         0.479797         0.810530
 H        -0.501786         0.408069        -0.896256
 H        -0.501754        -0.995971        -0.088414
 H         2.206895         1.833382        -0.815560
 H         2.296987         1.728242         1.048487
 H         2.624205        -0.147889        -1.831725
 H         2.047435        -1.813259        -1.072226
 H         4.860096        -0.939551         2.679015
 H         4.711394         0.849656         2.402521
 H         2.178397        -1.865310         1.167219
