19
Iteration:  2325
 C        -0.209364        -0.007948        -0.006595
 C         1.312476        -0.043082         0.000895
 C         2.379744         1.129633         0.105570
 C         3.243551        -0.061453         0.128144
 C         2.376683        -0.830277        -0.921999
 O         4.513975        -0.232871         0.662699
 C         4.307172        -0.173515         2.078450
 O         2.917530        -0.254252         2.456341
 C         2.252043        -0.750288         1.081435
 H        -0.384103         0.360844         0.936055
 H        -0.646944         0.723750        -0.701746
 H        -0.769193        -0.985698        -0.113184
 H         2.494275         1.572641        -0.944803
 H         2.484018         1.844903         1.019309
 H         2.537788        -0.299780        -1.864646
 H         2.403095        -1.897061        -1.049873
 H         4.820013        -1.030813         2.616565
 H         4.817151         0.800489         2.544824
 H         2.303863        -1.796043         1.275289
