19
Iteration:  3545
 C        -0.108909        -0.032136         0.054569
 C         1.393711        -0.068632         0.059166
 C         2.447816         1.157328         0.153900
 C         3.266884        -0.242499         0.118856
 C         2.352306        -0.678729        -1.051039
 O         4.552316        -0.234010         0.663267
 C         4.187961         0.042633         2.096105
 O         2.806672        -0.333910         2.372502
 C         2.288282        -0.890342         1.185095
 H        -0.502526         0.174523         1.039674
 H        -0.416267         0.754111        -0.651788
 H        -0.324887        -0.927581        -0.362683
 H         2.420752         1.592754        -0.843265
 H         2.397529         1.887580         0.944961
 H         2.530314        -0.179019        -2.057276
 H         2.169749        -1.708395        -1.113956
 H         4.711097        -0.480929         2.928852
 H         4.240402         1.166039         2.244793
 H         2.009853        -1.995920         1.113923
