19
Iteration:  4275
 C        -0.103906        -0.084194        -0.070158
 C         1.362508         0.001954         0.085102
 C         2.300788         1.137767        -0.017625
 C         3.239333        -0.084660         0.144770
 C         2.296431        -0.810361        -0.954999
 O         4.528313        -0.041933         0.737893
 C         4.300494        -0.425176         2.095693
 O         2.846882        -0.175248         2.414334
 C         2.364097        -0.694109         1.202633
 H        -0.722266         0.496336         0.688313
 H        -0.263519         0.254795        -1.031627
 H        -0.209751        -1.169717         0.044042
 H         2.375524         1.483224        -1.013136
 H         2.240768         1.840653         0.742274
 H         2.436934        -0.247474        -1.964916
 H         2.308582        -1.864032        -0.864068
 H         4.469586        -1.536194         2.299908
 H         4.780327         0.199464         2.810978
 H         2.376511        -1.805163         1.246702
