19
Iteration:  4797
 C        -0.170893        -0.101293        -0.060494
 C         1.423004         0.011648         0.085084
 C         2.466473         1.140290         0.144619
 C         3.309232        -0.225700         0.099106
 C         2.289326        -0.677553        -0.943303
 O         4.571884        -0.284471         0.639263
 C         4.229319        -0.053769         2.093100
 O         2.796516        -0.297710         2.400815
 C         2.307389        -0.757262         1.154746
 H        -0.635316         0.037922         0.988111
 H        -0.774233         0.555434        -0.752363
 H        -0.288076        -1.156351        -0.504570
 H         2.429376         1.850944        -0.656126
 H         2.347317         1.825024         0.992043
 H         2.361356        -0.002518        -1.841648
 H         2.088105        -1.691217        -1.041890
 H         4.807727        -0.694116         2.720670
 H         4.366303         1.064606         2.470180
 H         2.076618        -1.860964         1.322275
