19
Iteration:  2243charge 0 multiplicity 1
 C        -0.135626         0.032266         0.093046
 C         1.373934        -0.008480         0.060509
 C         2.335170         1.174070         0.014303
 C         3.257065        -0.153076         0.137532
 C         2.398818        -0.743804        -0.991287
 O         4.494443        -0.270272         0.679928
 C         4.349294        -0.072358         2.113537
 O         2.879736        -0.379795         2.389017
 C         2.218522        -0.809490         1.122064
 H        -0.589358         0.864000         0.887831
 H        -0.355014         0.479201        -0.921068
 H        -0.655590        -0.930595         0.250315
 H         2.352981         1.697892        -0.896586
 H         2.250622         1.887594         0.774583
 H         2.390858        -0.393901        -2.047521
 H         2.451374        -1.865422        -0.897829
 H         5.081018        -0.763787         2.732357
 H         4.414155         0.976135         2.330123
 H         2.021740        -1.931022         1.302186
