19
Iteration:   645
 C        -0.172501         0.152324         0.030133
 C         1.296688        -0.073949         0.089539
 C         2.451931         1.061607         0.139684
 C         3.264812        -0.260109         0.144426
 C         2.252256        -0.696556        -1.071999
 O         4.522186        -0.244701         0.698953
 C         4.222917         0.141703         2.017154
 O         2.931628        -0.480112         2.431243
 C         2.398914        -0.883032         1.172137
 H        -0.480723         0.593237         0.932201
 H        -0.490411         0.770976        -0.718130
 H        -0.750095        -0.810068         0.169563
 H         2.324801         1.564330        -0.862626
 H         2.476623         1.678001         1.017483
 H         2.527050        -0.066768        -2.073377
 H         2.281784        -1.732011        -1.435548
 H         4.980880        -0.239173         2.615249
 H         3.992339         1.209057         2.019923
 H         2.215482        -2.033422         1.218549
