19
Iteration:  2470charge 0 multiplicity 1
 C        -0.097759         0.049444         0.054609
 C         1.401349        -0.082659         0.106529
 C         2.419326         1.119269         0.098745
 C         3.182659        -0.138671         0.093715
 C         2.390691        -0.791642        -1.059175
 O         4.476710        -0.140056         0.645052
 C         4.244201        -0.166459         2.099320
 O         2.874150        -0.223612         2.382660
 C         2.287091        -0.856125         1.198239
 H        -0.600382         0.316096         0.993457
 H        -0.315328         0.672127        -0.755956
 H        -0.468471        -0.944249        -0.139750
 H         2.404365         1.666397        -0.904061
 H         2.332572         1.642352         1.052563
 H         2.478617        -0.394750        -2.056201
 H         2.171702        -1.855781        -1.017232
 H         4.645144        -1.050891         2.564639
 H         4.552877         0.747609         2.722332
 H         2.169800        -1.917275         1.205307
