19
Iteration:   126
 C        -0.012165         0.075535         0.124081
 C         1.388779        -0.158388         0.146044
 C         2.290016         1.178404         0.176682
 C         3.260443        -0.113947         0.036217
 C         2.321522        -0.791951        -1.054698
 O         4.551267        -0.167155         0.666306
 C         4.240380        -0.192348         2.084773
 O         2.797087        -0.275022         2.364712
 C         2.330368        -0.813414         1.069115
 H        -0.200824         0.913740         0.759623
 H        -0.298141         0.352650        -1.028930
 H        -0.654870        -0.804817         0.155381
 H         2.153397         1.827227        -0.735058
 H         2.322469         1.547580         1.207773
 H         2.245708        -0.341513        -2.044258
 H         2.429207        -1.916986        -0.920410
 H         4.739553        -1.013208         2.720579
 H         4.434120         0.843893         2.457478
 H         2.337952        -1.885287         1.156834
