19
Iteration:  3555charge 0 multiplicity 1
 C        -0.145124         0.049814         0.039085
 C         1.412911        -0.056539         0.039360
 C         2.419649         1.112766         0.131386
 C         3.234051        -0.218825         0.113444
 C         2.364575        -0.772815        -1.028181
 O         4.560436        -0.215836         0.684792
 C         4.269302         0.084034         2.145268
 O         2.761188        -0.371142         2.423583
 C         2.321752        -0.871862         1.051075
 H        -0.569989         0.181900         1.037440
 H        -0.545062         0.669771        -0.786701
 H        -0.570583        -0.853518        -0.085085
 H         2.340934         1.748523        -0.769327
 H         2.391860         1.716964         1.030295
 H         2.309958        -0.135410        -1.967320
 H         2.410265        -1.817592        -1.139815
 H         5.000089        -0.572990         2.644690
 H         4.271360         1.136025         2.414264
 H         2.205610        -1.952127         1.204361
