19
Iteration:   409charge 0 multiplicity 1
 C        -0.085848         0.083233         0.143994
 C         1.419828        -0.028995         0.150269
 C         2.381993         1.085442         0.129929
 C         3.310681        -0.229925         0.045121
 C         2.298258        -0.739339        -1.030082
 O         4.476900        -0.316385         0.723263
 C         4.163577         0.128307         2.011017
 O         2.835169        -0.448419         2.394062
 C         2.383934        -0.779311         1.067986
 H        -0.376187         0.502985         1.060102
 H        -0.380242         0.764530        -0.789530
 H        -0.622529        -0.870176        -0.106375
 H         2.558482         1.872766        -0.738234
 H         2.307942         1.487335         1.130255
 H         2.306477        -0.346666        -2.082806
 H         2.100221        -1.938702        -0.981531
 H         4.981808        -0.096840         2.761198
 H         4.171821         1.231917         1.855923
 H         2.404239        -1.960801         1.012426
