19
Iteration:  4970
 C        -0.127811        -0.072642        -0.055121
 C         1.371772        -0.047540         0.077789
 C         2.427076         1.187886         0.154779
 C         3.235764        -0.179481         0.132087
 C         2.353796        -0.767163        -0.951451
 O         4.536018        -0.161652         0.702621
 C         4.261110        -0.219106         2.099926
 O         2.872554        -0.169474         2.311752
 C         2.224089        -0.791443         1.164078
 H        -0.565417         0.057831         0.884360
 H        -0.376989         0.631413        -0.887359
 H        -0.572543        -1.048758        -0.374305
 H         2.352739         1.753885        -0.803787
 H         2.664915         1.690330         1.150859
 H         2.279896        -0.096344        -1.934488
 H         2.184022        -1.976360        -1.027536
 H         4.688533        -1.148485         2.584699
 H         4.555767         0.634107         2.585338
 H         2.218181        -1.862679         1.340308
