19
Iteration:  1684charge 0 multiplicity 1
 C        -0.197437        -0.046936        -0.022971
 C         1.296298        -0.026623         0.072262
 C         2.404456         1.127956         0.048430
 C         3.268628        -0.163216         0.122250
 C         2.323832        -0.786967        -0.924593
 O         4.616267        -0.068133         0.653354
 C         4.166967        -0.384923         2.066438
 O         2.927988        -0.154445         2.377733
 C         2.316341        -0.719958         1.237799
 H        -0.635369         0.519136         0.764936
 H        -0.535534         0.573170        -0.889195
 H        -0.537582        -1.120225        -0.103430
 H         2.505160         1.779600        -0.897494
 H         2.563308         1.727693         1.023216
 H         2.187765        -0.275461        -1.873324
 H         2.141321        -1.887819        -0.893647
 H         4.431768        -1.475363         2.122307
 H         4.893836         0.136764         2.795752
 H         2.247228        -1.740779         1.471435
