19
Iteration:   265charge 0 multiplicity 1
 C        -0.146290        -0.039469         0.153847
 C         1.373621        -0.108800         0.118138
 C         2.331413         1.146411         0.001605
 C         3.274887        -0.021624         0.111917
 C         2.415239        -0.806975        -0.923335
 O         4.559831        -0.088194         0.692976
 C         4.237071        -0.400794         2.091609
 O         2.840282        -0.258784         2.352902
 C         2.272385        -0.623606         1.086217
 H        -0.381370         0.796890         0.768554
 H        -0.401499         0.190415        -0.928884
 H        -0.815084        -0.946860         0.241090
 H         2.154369         1.761157        -0.986865
 H         2.385288         1.895641         0.901787
 H         2.394323        -0.376076        -2.024821
 H         2.424329        -1.957546        -1.030624
 H         4.535468        -1.400250         2.205989
 H         4.890306         0.292147         2.677020
 H         2.227936        -1.781631         0.981341
