19
Iteration:   167charge 0 multiplicity 1
 C        -0.217132        -0.072775         0.038089
 C         1.336677         0.019312         0.041477
 C         2.436284         1.161376         0.166493
 C         3.243402        -0.225266         0.141652
 C         2.354266        -0.653764        -1.112648
 O         4.606469        -0.379496         0.645722
 C         4.279993         0.067932         2.069875
 O         2.899507        -0.400446         2.469447
 C         2.214615        -0.756822         1.185441
 H        -0.591094         0.231645         0.976476
 H        -0.713215         0.604798        -0.776340
 H        -0.558707        -1.098854        -0.284521
 H         2.578946         1.863352        -0.727353
 H         2.413986         1.666170         1.220416
 H         2.501763         0.068807        -2.009623
 H         2.191299        -1.742089        -1.290919
 H         5.052637        -0.300557         2.676425
 H         4.240468         1.169746         2.033565
 H         1.930971        -1.821601         1.192818
