19
Iteration:  4432charge 0 multiplicity 1
 C        -0.157854         0.104593        -0.027848
 C         1.390685        -0.108434         0.064813
 C         2.364897         1.056832         0.123983
 C         3.262245        -0.243578         0.086884
 C         2.336679        -0.723923        -1.050419
 O         4.558065        -0.296880         0.742640
 C         4.167337         0.120608         2.108412
 O         2.909842        -0.359902         2.427886
 C         2.330907        -0.849846         1.154394
 H        -0.337942         0.276916         1.006324
 H        -0.430875         0.993062        -0.663675
 H        -0.696752        -0.657327        -0.519096
 H         2.293748         1.752503        -0.734536
 H         2.382453         1.385811         1.167144
 H         2.227749        -0.149173        -1.985057
 H         2.491672        -1.880064        -1.377684
 H         4.912000        -0.192102         2.849834
 H         4.159629         1.238139         1.984155
 H         2.092089        -1.891838         1.240833
