19
Iteration:   328charge 0 multiplicity 1
 C        -0.156631        -0.096504        -0.015140
 C         1.320918         0.015550         0.142627
 C         2.320511         1.141166         0.140812
 C         3.246241        -0.055493         0.158842
 C         2.390434        -0.751411        -0.908189
 O         4.532793        -0.207865         0.629351
 C         4.276284        -0.389772         2.059050
 O         2.897321        -0.096498         2.312225
 C         2.303605        -0.711670         1.152040
 H        -0.891672         0.413871         0.729318
 H        -0.474199         0.164414        -0.979381
 H        -0.199448        -1.231342         0.083948
 H         2.167102         1.653958        -0.725310
 H         2.513678         1.841418         0.968517
 H         2.427174        -0.296435        -1.908794
 H         2.361216        -1.772594        -0.949877
 H         4.305367        -1.523277         2.274719
 H         5.002926         0.246300         2.654439
 H         2.404494        -1.778981         1.239633
