19
Iteration:  2147
 C        -0.199212        -0.042623         0.063382
 C         1.392429         0.031639         0.085363
 C         2.334194         1.181952         0.045799
 C         3.275888        -0.204817         0.129329
 C         2.347110        -0.653858        -1.000790
 O         4.511889        -0.424519         0.766934
 C         4.300462        -0.061423         2.050906
 O         2.887801        -0.270432         2.327310
 C         2.331369        -0.774715         1.128103
 H        -0.616634         0.163500         1.033183
 H        -0.721931         0.638902        -0.607692
 H        -0.500395        -1.053688        -0.055629
 H         2.331572         1.760039        -0.908119
 H         2.470225         1.774407         0.931625
 H         2.523590        -0.098286        -1.914994
 H         2.148856        -1.718610        -1.146715
 H         4.990484        -0.620762         2.794995
 H         4.524809         0.999293         2.294473
 H         1.985239        -1.791771         1.259040
