19
Iteration:  4877charge 0 multiplicity 1
 C        -0.044737         0.008704         0.019995
 C         1.372301        -0.049708         0.051269
 C         2.365601         1.117323         0.131251
 C         3.236042        -0.106538         0.125667
 C         2.358424        -0.851735        -0.976374
 O         4.528015         0.004137         0.726537
 C         4.244159        -0.342536         2.086386
 O         2.806946        -0.219450         2.340115
 C         2.272719        -0.783671         1.126905
 H        -0.535761         0.883541         0.655232
 H        -0.294879        -0.027957        -1.002367
 H        -0.547527        -0.883739         0.449175
 H         2.377922         1.659782        -0.882240
 H         2.546008         1.689376         1.030164
 H         2.206425        -0.412423        -1.960113
 H         2.468607        -1.995031        -1.016176
 H         4.626289        -1.333094         2.245859
 H         4.708857         0.513417         2.815057
 H         2.341993        -1.883174         1.032749
