19
Iteration:  1998charge 0 multiplicity 1
 C        -0.065376        -0.089402         0.058008
 C         1.335436        -0.067737         0.051293
 C         2.305804         1.170278         0.062731
 C         3.195546        -0.065738         0.149354
 C         2.384094        -0.722994        -0.963177
 O         4.479540        -0.283921         0.671951
 C         4.263546        -0.425112         2.100034
 O         2.905479        -0.045256         2.339624
 C         2.333886        -0.653175         1.152209
 H        -0.310597         0.271128         1.031522
 H        -0.461560         0.478478        -0.812525
 H        -0.437133        -1.161838        -0.023920
 H         2.267525         1.708515        -0.849714
 H         2.262371         1.784551         0.941060
 H         2.482502        -0.262528        -1.973817
 H         2.104202        -1.769657        -0.899131
 H         4.538572        -1.540133         2.361040
 H         4.763278         0.374410         2.698825
 H         2.508745        -1.703228         1.227818
