19
Iteration:  3031charge 0 multiplicity 1
 C        -0.064923        -0.008390        -0.063292
 C         1.425057        -0.120905         0.140076
 C         2.305254         1.138607         0.078348
 C         3.232649        -0.138907         0.170657
 C         2.376206        -0.763554        -0.932038
 O         4.535366        -0.015112         0.631489
 C         4.277881        -0.345786         2.096367
 O         2.791413        -0.245685         2.385133
 C         2.306960        -0.743208         1.146379
 H        -0.371338         0.680092         0.764818
 H        -0.337671         0.613142        -0.946678
 H        -0.608431        -0.926227        -0.055898
 H         2.341425         1.580712        -0.959189
 H         2.139837         1.765051         0.997179
 H         2.349674        -0.467066        -1.949653
 H         2.326504        -1.944526        -0.976748
 H         4.723512        -1.356344         2.398961
 H         4.631089         0.528646         2.681893
 H         2.182860        -1.850849         1.356001
