19
Iteration:  4647charge 0 multiplicity 1
 C        -0.138581        -0.088606        -0.086237
 C         1.364798        -0.100734         0.095106
 C         2.339605         1.091573         0.142133
 C         3.259920        -0.181579         0.163527
 C         2.384189        -0.642630        -0.999120
 O         4.550907        -0.260536         0.683276
 C         4.276615        -0.202592         2.061599
 O         2.831646        -0.146314         2.373474
 C         2.282301        -0.714998         1.189066
 H        -0.560389         0.404594         0.883607
 H        -0.479371         0.496909        -0.920687
 H        -0.498561        -1.110280         0.068710
 H         2.462064         1.710205        -0.837480
 H         2.359079         1.541504         1.146942
 H         2.501571         0.006600        -1.990256
 H         2.152665        -1.702787        -1.253754
 H         4.750071        -1.057201         2.672777
 H         4.494566         0.760427         2.505058
 H         2.385752        -1.807915         1.237956
