19
Iteration:  4815
 C        -0.102202        -0.140373        -0.002231
 C         1.368877         0.032664         0.088961
 C         2.382548         1.207860         0.147956
 C         3.216895        -0.120648         0.176328
 C         2.375138        -0.726828        -0.977361
 O         4.512717        -0.293297         0.665569
 C         4.256902        -0.103074         2.103006
 O         2.831402        -0.280305         2.343605
 C         2.266564        -0.736655         1.099410
 H        -0.658583         0.266540         0.798157
 H        -0.348143         0.665037        -0.841359
 H        -0.355400        -1.205578        -0.194152
 H         2.569232         1.773698        -0.771793
 H         2.593140         1.807443         1.112249
 H         2.347697        -0.498872        -2.036954
 H         2.416448        -1.913198        -1.042781
 H         4.866765        -1.003251         2.682215
 H         4.527057         0.868979         2.450126
 H         2.268460        -1.880798         1.278308
