19
Iteration:  2719charge 0 multiplicity 1
 C        -0.195911        -0.033190        -0.014186
 C         1.332487        -0.044547         0.125704
 C         2.433145         1.210795         0.140965
 C         3.273492        -0.138620         0.145210
 C         2.374677        -0.706604        -1.022022
 O         4.566899        -0.250440         0.711746
 C         4.246853        -0.127587         2.103548
 O         2.833623        -0.247761         2.341267
 C         2.286189        -0.880544         1.150175
 H        -0.790345         0.533972         0.640700
 H        -0.438294         0.116330        -1.017792
 H        -0.404962        -1.104740         0.118836
 H         2.390178         1.607510        -0.831536
 H         2.477172         2.012575         0.822350
 H         2.284127        -0.060869        -1.900395
 H         2.321160        -1.776041        -1.339368
 H         4.858543        -0.891442         2.694463
 H         4.477215         0.844840         2.497992
 H         2.320886        -2.011265         1.132454
