19
Iteration:  4599
 C        -0.131942        -0.011607         0.011378
 C         1.373818        -0.087997        -0.002173
 C         2.366524         1.186169        -0.010069
 C         3.234177        -0.090472         0.163466
 C         2.361926        -0.854665        -0.866256
 O         4.506573        -0.074307         0.696130
 C         4.304327        -0.299912         2.085857
 O         2.821279        -0.266462         2.398914
 C         2.322185        -0.708778         1.151745
 H        -0.562010         0.146240         0.972681
 H        -0.335150         0.859960        -0.651401
 H        -0.573978        -0.973022        -0.414483
 H         2.377082         1.650623        -1.041633
 H         2.247509         1.804752         0.952307
 H         2.510646        -0.332885        -1.941827
 H         2.544538        -1.983196        -0.942758
 H         4.519111        -1.299693         2.334067
 H         4.825236         0.398020         2.809066
 H         2.141950        -1.747648         1.211838
