19
Iteration:  1710charge 0 multiplicity 1
 C        -0.020323        -0.125659         0.124117
 C         1.380262         0.024929         0.037737
 C         2.267518         1.249450        -0.045734
 C         3.234384        -0.075918         0.138158
 C         2.364118        -0.776250        -0.955106
 O         4.490004        -0.238277         0.719237
 C         4.344482        -0.471924         2.074622
 O         2.808145        -0.126095         2.365177
 C         2.289323        -0.648494         1.168395
 H        -0.438267         0.644143         0.829793
 H        -0.345083         0.335758        -0.818607
 H        -0.370843        -1.094763         0.101935
 H         2.399261         1.777206        -0.928139
 H         2.085450         1.916803         0.771643
 H         2.380607        -0.278266        -1.938828
 H         2.209493        -1.816339        -0.955287
 H         4.646460        -1.500567         2.411480
 H         5.047661         0.219660         2.565572
 H         2.209083        -1.822948         1.318830
