19
Iteration:   492
 C        -0.154047        -0.053729        -0.014353
 C         1.338057        -0.052284         0.146361
 C         2.266272         1.192922        -0.013144
 C         3.242394        -0.147588         0.129410
 C         2.256782        -0.795373        -0.925244
 O         4.588666        -0.132092         0.646315
 C         4.332526        -0.345411         2.099819
 O         2.918235        -0.222895         2.423563
 C         2.340303        -0.658740         1.155919
 H        -0.663273         0.604526         0.775229
 H        -0.553689         0.291071        -0.984027
 H        -0.695528        -1.097885        -0.066237
 H         2.244748         1.755374        -0.917273
 H         2.376778         1.823676         0.886262
 H         2.597856        -0.093201        -1.770216
 H         2.266462        -1.847247        -1.165716
 H         4.639109        -1.365340         2.520653
 H         4.911061         0.303407         2.750163
 H         2.216506        -1.709664         1.124404
