19
Iteration:  2218charge 0 multiplicity 1
 C        -0.145509         0.125190        -0.031500
 C         1.366793        -0.056940         0.060865
 C         2.384522         1.073391         0.034330
 C         3.300596        -0.206010         0.078132
 C         2.283176        -0.770341        -0.930604
 O         4.546946        -0.165050         0.669967
 C         4.254524        -0.053429         2.077973
 O         2.867597        -0.433002         2.478992
 C         2.328341        -0.798379         1.150988
 H        -0.369518         0.830296         0.839403
 H        -0.487855         0.641981        -0.926967
 H        -0.712560        -0.789767         0.259492
 H         2.259527         1.754447        -0.840686
 H         2.402017         1.699079         0.993118
 H         2.087228        -0.274075        -1.895439
 H         2.034108        -1.878665        -0.987814
 H         4.975793        -0.618470         2.586722
 H         4.375914         1.012618         2.381275
 H         2.452155        -1.924132         1.140214
