19
Iteration:   346
 C        -0.124787        -0.054710        -0.056274
 C         1.361890        -0.114656         0.092927
 C         2.249658         1.211392         0.116365
 C         3.251085        -0.126068         0.143557
 C         2.320942        -0.740361        -0.952039
 O         4.558387        -0.211612         0.619054
 C         4.330318        -0.312549         2.093259
 O         2.904185        -0.170285         2.368110
 C         2.311146        -0.728415         1.213684
 H        -0.505494         0.453583         0.869111
 H        -0.326507         0.706751        -0.831664
 H        -0.706746        -0.919959        -0.073102
 H         2.399823         1.871095        -0.822854
 H         2.047599         1.749334         1.026436
 H         2.243041        -0.303595        -1.929885
 H         2.274621        -1.888360        -0.918718
 H         4.705209        -1.223232         2.492898
 H         4.767938         0.547244         2.552468
 H         2.215170        -1.839457         1.235087
