19
Iteration:  3480charge 0 multiplicity 1
 C        -0.112431        -0.008119        -0.038083
 C         1.410873        -0.101009         0.125552
 C         2.371008         1.101270         0.107575
 C         3.235977        -0.117818         0.174727
 C         2.354992        -0.705867        -1.079892
 O         4.496163        -0.235470         0.658101
 C         4.327955        -0.068302         2.120385
 O         2.816908        -0.291747         2.397166
 C         2.266859        -0.796885         1.170096
 H        -0.672935         0.312694         0.863354
 H        -0.422118         0.531429        -0.951715
 H        -0.492604        -1.063196        -0.171224
 H         2.263582         1.677102        -0.805894
 H         2.379170         1.604681         1.051143
 H         2.483456        -0.156393        -2.047335
 H         2.323748        -1.727764        -1.084809
 H         4.930249        -0.862797         2.668696
 H         4.644591         1.061640         2.436305
 H         2.203815        -1.926759         1.407681
