19
Iteration:  1847
 C        -0.161789        -0.029073         0.039963
 C         1.356471         0.010501         0.194067
 C         2.493372         1.126999         0.123163
 C         3.256394        -0.190063         0.078759
 C         2.302745        -0.681727        -0.981053
 O         4.511004        -0.397509         0.658357
 C         4.323137         0.029799         2.054409
 O         2.824355        -0.305780         2.366965
 C         2.245320        -0.785253         1.143000
 H        -0.752272         0.365832         0.852608
 H        -0.344192         0.614713        -0.828832
 H        -0.283591        -1.106940        -0.226216
 H         2.630485         1.755644        -0.766631
 H         2.493734         1.840856         1.049885
 H         2.278715        -0.128877        -1.957874
 H         2.183203        -1.784264        -1.067458
 H         4.922361        -0.557356         2.625599
 H         4.430422         1.066874         2.343884
 H         2.199994        -1.941026         0.959228
