19
Iteration:   452charge 0 multiplicity 1
 C        -0.140301        -0.011577         0.163023
 C         1.362816        -0.062243         0.061180
 C         2.437952         1.128191         0.180175
 C         3.242480        -0.215991         0.128634
 C         2.408805        -0.739051        -1.030014
 O         4.504459        -0.292690         0.621655
 C         4.257930        -0.010625         2.036931
 O         2.794376        -0.283311         2.353113
 C         2.305417        -0.751759         1.143882
 H        -0.356133         0.721840         0.855266
 H        -0.575012         0.152055        -0.947761
 H        -0.633921        -1.023301         0.185586
 H         2.448402         1.893332        -0.676051
 H         2.427265         1.582390         1.135928
 H         2.456007        -0.091131        -1.916402
 H         2.131285        -1.772084        -1.415028
 H         4.979197        -0.740851         2.570075
 H         4.544355         1.013908         2.473271
 H         2.208763        -1.912458         1.146385
