19
Iteration:  1276
 C        -0.214902         0.035281         0.107558
 C         1.391427        -0.068732         0.074600
 C         2.404134         1.209502         0.041318
 C         3.215189        -0.085934         0.111675
 C         2.319811        -0.660412        -0.996362
 O         4.556328        -0.319537         0.701272
 C         4.317120        -0.053908         2.096446
 O         2.858859        -0.461543         2.384998
 C         2.322938        -0.823524         1.095166
 H        -0.420362         0.735334         1.034263
 H        -0.573705         0.503016        -0.804836
 H        -0.796722        -0.911132         0.409561
 H         2.487114         1.628774        -0.934559
 H         2.304542         1.777193         1.014968
 H         2.401373        -0.054951        -1.942373
 H         2.116666        -1.686178        -1.220952
 H         5.073792        -0.621906         2.682754
 H         4.277383         1.042638         2.418653
 H         2.335805        -1.899645         0.811905
