19
Iteration:  2133
 C        -0.119679        -0.068089         0.115675
 C         1.328329         0.036229         0.109215
 C         2.515447         1.168355         0.109790
 C         3.216272        -0.155802         0.128918
 C         2.331861        -0.721602        -0.980178
 O         4.516442        -0.363646         0.606423
 C         4.269499        -0.036532         2.140736
 O         2.808535        -0.282256         2.347161
 C         2.262869        -0.732385         1.104758
 H        -0.635147         0.204417         1.099612
 H        -0.500161         0.467659        -0.738373
 H        -0.280244        -1.073777        -0.233687
 H         2.586674         1.669774        -0.784408
 H         2.484266         1.876791         0.896765
 H         2.437867        -0.424233        -2.004763
 H         2.330566        -1.829709        -0.943155
 H         4.828611        -0.931035         2.548553
 H         4.540556         0.971310         2.347699
 H         2.262382        -1.823801         1.021830
