19
Iteration:  2522charge 0 multiplicity 1
 C        -0.108738        -0.005432        -0.025028
 C         1.391390        -0.014708         0.025574
 C         2.359609         1.173984         0.110341
 C         3.204370        -0.195950         0.143449
 C         2.285713        -0.779909        -0.974956
 O         4.481420        -0.200220         0.703028
 C         4.349429        -0.175258         2.095997
 O         2.887827        -0.247315         2.396052
 C         2.334836        -0.779196         1.137594
 H        -0.571785         0.386193         0.905863
 H        -0.523693         0.529551        -0.941834
 H        -0.615761        -1.109586        -0.029131
 H         2.268739         1.773337        -0.750589
 H         2.272253         1.683327         1.066155
 H         2.463235        -0.212370        -1.871631
 H         2.226880        -1.868657        -1.158305
 H         4.705008        -0.964018         2.806258
 H         4.669220         0.828118         2.369771
 H         2.315396        -1.909928         1.077195
