19
Iteration:  3002
 C        -0.220206         0.001479        -0.086007
 C         1.347710        -0.084839         0.031060
 C         2.300617         1.095222         0.114207
 C         3.215602        -0.131354         0.178795
 C         2.425977        -0.749275        -0.981718
 O         4.511453        -0.154412         0.688841
 C         4.317571        -0.340629         2.143191
 O         2.857293        -0.148536         2.365949
 C         2.409716        -0.710693         1.175201
 H        -0.595201         0.282837         0.917036
 H        -0.839836         0.597130        -0.724126
 H        -0.684443        -1.081171        -0.221418
 H         2.430701         1.657360        -0.831800
 H         2.173466         1.659011         1.006259
 H         2.534186        -0.239135        -1.937534
 H         2.404354        -1.775619        -1.111063
 H         4.684559        -1.292221         2.466206
 H         4.788149         0.501291         2.644229
 H         2.555340        -1.757203         1.233066
