19
Iteration:  2072charge 0 multiplicity 1
 C        -0.217593         0.102720         0.045378
 C         1.352499        -0.155669         0.084282
 C         2.312003         1.134055         0.049983
 C         3.257845        -0.159429         0.097396
 C         2.366660        -0.768764        -0.939497
 O         4.566090        -0.189443         0.659986
 C         4.325590        -0.233076         2.067261
 O         2.842748        -0.238862         2.395449
 C         2.360983        -0.727210         1.171134
 H        -0.482893         0.901512         0.720712
 H        -0.449230         0.456737        -1.015550
 H        -0.935629        -0.730124         0.285053
 H         2.038942         1.630986        -1.006946
 H         2.289915         1.734170         0.975936
 H         2.518962        -0.265405        -1.912735
 H         2.530736        -1.864489        -0.922241
 H         4.532668        -1.225131         2.296280
 H         4.897319         0.448419         2.741061
 H         2.338834        -1.887691         1.254664
