19
Iteration:   935charge 0 multiplicity 1
 C        -0.195468         0.156288         0.136293
 C         1.382455        -0.159972         0.050563
 C         2.331758         1.074785         0.148619
 C         3.188040        -0.146558         0.132323
 C         2.391257        -0.729286        -1.052675
 O         4.520810        -0.139938         0.620101
 C         4.287178        -0.083070         2.106157
 O         2.887730        -0.392837         2.361417
 C         2.386686        -0.889809         1.100996
 H        -0.263902         0.946651         0.920749
 H        -0.580586         0.751938        -0.712555
 H        -0.844161        -0.594775         0.377385
 H         2.499082         1.631027        -0.766951
 H         2.261525         1.715152         1.054057
 H         2.197074        -0.193558        -2.033860
 H         2.211997        -1.894968        -1.190820
 H         4.799649        -0.732093         2.777241
 H         4.393781         0.955352         2.441942
 H         2.444051        -2.081954         1.170201
