19
Iteration:  4035
 C        -0.121090        -0.127139         0.079452
 C         1.440383        -0.092408         0.068460
 C         2.389356         1.188095         0.025052
 C         3.196784        -0.149922         0.162634
 C         2.438601        -0.761399        -1.002844
 O         4.570485        -0.047538         0.741621
 C         4.170210        -0.400582         2.105822
 O         2.805753        -0.122424         2.281158
 C         2.236283        -0.695352         1.172737
 H        -0.412608         0.208472         1.185336
 H        -0.437080         0.556463        -0.695824
 H        -0.392928        -1.178862        -0.175458
 H         2.534203         1.719406        -0.916494
 H         2.360954         1.639074         1.003437
 H         2.282676        -0.384608        -2.019413
 H         2.497754        -1.791654        -1.095314
 H         4.542102        -1.446860         2.081241
 H         4.720907         0.273611         2.729188
 H         2.190004        -1.740215         1.416349
