19
Iteration:  1057
 C        -0.161267        -0.078982         0.127056
 C         1.340256        -0.012438         0.095924
 C         2.333003         1.185947         0.035240
 C         3.298557        -0.115008         0.111714
 C         2.265949        -0.722621        -1.052192
 O         4.553946        -0.077442         0.686174
 C         4.329110        -0.436048         2.167844
 O         2.898842        -0.228060         2.371941
 C         2.334212        -0.747051         1.080399
 H        -0.489117         0.454994         1.073210
 H        -0.645378         0.530882        -0.647977
 H        -0.481887        -1.075771        -0.012548
 H         2.237164         1.715676        -0.946371
 H         2.271685         1.815574         0.884705
 H         2.210128        -0.007388        -2.018064
 H         2.050634        -1.848448        -1.367820
 H         4.462638        -1.467520         2.459653
 H         4.948664         0.335906         2.665561
 H         2.233932        -1.788238         1.401939
