19
Iteration:  1495charge 0 multiplicity 1
 C        -0.143347        -0.027639        -0.033293
 C         1.337491         0.019835         0.119171
 C         2.279916         1.152146         0.091277
 C         3.238782        -0.200752         0.163644
 C         2.296497        -0.755536        -0.958425
 O         4.588247        -0.242526         0.583625
 C         4.256413        -0.205433         2.150398
 O         2.923435        -0.245699         2.395354
 C         2.355223        -0.740623         1.178196
 H        -0.650971         0.549268         0.728310
 H        -0.256403         0.652261        -0.848675
 H        -0.591608        -0.978950        -0.249385
 H         2.427543         1.805222        -0.847160
 H         2.300056         1.814589         1.011566
 H         2.431333        -0.147226        -1.917761
 H         1.946360        -1.768414        -0.995016
 H         4.738648        -1.208533         2.356985
 H         4.781264         0.703080         2.597632
 H         2.153553        -1.859474         1.184312
