19
Iteration:  2270
 C        -0.171039        -0.043596         0.101921
 C         1.376031        -0.003520         0.026704
 C         2.449209         1.136744         0.152489
 C         3.223542        -0.164582         0.105686
 C         2.317777        -0.727867        -1.030465
 O         4.534335        -0.320002         0.623624
 C         4.266717        -0.119307         2.110957
 O         2.807259        -0.192091         2.350494
 C         2.341640        -0.806831         1.185386
 H        -0.608672         0.514884         0.857381
 H        -0.520594         0.386222        -0.849965
 H        -0.515203        -1.099978         0.089017
 H         2.638602         1.879923        -0.705544
 H         2.374107         1.737018         1.135357
 H         2.516778        -0.239903        -2.017993
 H         2.390171        -1.795038        -1.193711
 H         4.716727        -0.915820         2.711046
 H         4.411360         0.979452         2.363932
 H         2.396896        -1.852154         1.403026
