19
Iteration:  1080charge 0 multiplicity 1
 C        -0.092836         0.084464         0.175991
 C         1.338805        -0.114714         0.055408
 C         2.394542         1.156019         0.003091
 C         3.192571        -0.093091         0.100765
 C         2.253700        -0.780414        -0.977734
 O         4.537224         0.072659         0.727165
 C         4.267362        -0.328244         2.051730
 O         2.867785        -0.410369         2.365217
 C         2.365104        -0.810345         1.116023
 H        -0.377033         0.768513         0.964636
 H        -0.393028         0.568051        -0.728316
 H        -0.586719        -0.878537         0.137205
 H         2.435234         1.652964        -0.953951
 H         2.433943         1.808682         0.875052
 H         2.243770        -0.361416        -2.075518
 H         2.385826        -1.926843        -0.982383
 H         4.547204        -1.374204         2.238408
 H         4.765197         0.378803         2.738863
 H         2.347614        -1.934295         1.219452
