19
Iteration:  2693charge 0 multiplicity 1
 C        -0.059621        -0.056694        -0.018081
 C         1.380534        -0.050393         0.012946
 C         2.363218         1.197669         0.201187
 C         3.269766        -0.128901         0.120003
 C         2.363308        -0.754680        -0.990863
 O         4.568617        -0.300827         0.631772
 C         4.244687        -0.082388         2.112359
 O         2.840741        -0.238935         2.365138
 C         2.214572        -0.781046         1.179914
 H        -0.596757         0.370276         0.857995
 H        -0.363919         0.301078        -1.067257
 H        -0.337602        -1.111229        -0.082197
 H         2.309026         2.093659        -0.523184
 H         2.220471         1.652226         1.252818
 H         2.146201        -0.248051        -1.940317
 H         2.234927        -1.864828        -1.126949
 H         4.652099        -0.986821         2.580121
 H         4.718601         0.802470         2.676142
 H         2.068134        -1.839186         1.223203
