19
Iteration:    21charge 0 multiplicity 1
 C        -0.111220        -0.139182        -0.001242
 C         1.344442        -0.066323        -0.009365
 C         2.299337         1.163422         0.090402
 C         3.204997        -0.146560         0.193605
 C         2.370601        -0.633767        -1.055756
 O         4.509703        -0.238553         0.605439
 C         4.321246        -0.377394         2.122659
 O         2.936085        -0.074363         2.458852
 C         2.248611        -0.711583         1.224032
 H        -0.430054         0.345929         1.003932
 H        -0.498444         0.376733        -0.753906
 H        -0.499699        -1.130051         0.079023
 H         2.425486         1.725533        -0.868653
 H         2.194373         1.788194         0.972169
 H         2.447035        -0.003280        -1.920555
 H         2.378715        -1.699225        -1.347373
 H         4.599898        -1.362657         2.304962
 H         4.954298         0.372762         2.575774
 H         2.074422        -1.807125         1.368537
