19
Iteration:  1007charge 0 multiplicity 1
 C        -0.095093        -0.190314         0.017152
 C         1.365563         0.046326         0.106890
 C         2.268944         1.240329         0.150657
 C         3.226630        -0.130477         0.142378
 C         2.287385        -0.630781        -1.030717
 O         4.546724        -0.310649         0.605154
 C         4.342765        -0.334832         2.055305
 O         2.946334        -0.163250         2.389635
 C         2.239479        -0.684623         1.182964
 H        -0.565524         0.201283         0.892538
 H        -0.569226         0.425994        -0.785237
 H        -0.314734        -1.331315        -0.155927
 H         2.432334         1.914713        -0.665995
 H         2.240619         1.710760         1.183596
 H         2.310185        -0.173826        -1.952127
 H         2.234302        -1.666067        -1.115674
 H         4.691533        -1.361485         2.364600
 H         4.720200         0.464128         2.675583
 H         2.220574        -1.727147         1.357308
