19
Iteration:  1355
 C        -0.128013         0.037862         0.023792
 C         1.385412        -0.065633         0.129014
 C         2.266284         1.140275         0.129929
 C         3.209937        -0.142710         0.145607
 C         2.251949        -0.748690        -1.000416
 O         4.550064        -0.189760         0.684968
 C         4.302628        -0.273872         2.113412
 O         2.977023        -0.235485         2.333344
 C         2.315327        -0.778841         1.113265
 H        -0.689906         0.462210         0.849846
 H        -0.184802         0.825488        -0.773242
 H        -0.640552        -0.937569        -0.399987
 H         2.264530         1.596558        -0.822381
 H         2.191222         1.846837         0.890468
 H         2.391894        -0.224782        -1.943676
 H         2.293977        -1.840366        -0.992992
 H         4.793933        -1.171207         2.508753
 H         4.633375         0.708236         2.594682
 H         2.189527        -1.826196         1.156652
