19
Iteration:  1357charge 0 multiplicity 1
 C        -0.116660         0.044379         0.028199
 C         1.382146        -0.068246         0.128761
 C         2.264880         1.146376         0.121121
 C         3.202505        -0.130489         0.140070
 C         2.253780        -0.752323        -0.998768
 O         4.535824        -0.186074         0.697583
 C         4.314379        -0.275792         2.094406
 O         2.965632        -0.239313         2.333336
 C         2.321268        -0.793535         1.119199
 H        -0.627247         0.486911         0.865985
 H        -0.231249         0.850309        -0.783248
 H        -0.638595        -0.901558        -0.411091
 H         2.281652         1.610643        -0.872249
 H         2.138600         1.859104         0.875548
 H         2.384506        -0.244032        -1.949955
 H         2.359148        -1.898077        -0.926095
 H         4.835577        -1.171032         2.529064
 H         4.672057         0.653860         2.652263
 H         2.251893        -1.828236         1.145338
