19
Iteration:   415charge 0 multiplicity 1
 C        -0.112566         0.058597         0.139913
 C         1.428514        -0.079687         0.073966
 C         2.415498         1.107668         0.128862
 C         3.280569        -0.223808         0.119482
 C         2.333856        -0.711847        -1.024724
 O         4.492713        -0.380494         0.729739
 C         4.152194         0.176947         2.017831
 O         2.877531        -0.413880         2.325676
 C         2.352898        -0.818970         1.094421
 H        -0.540276         0.596639         1.087956
 H        -0.349172         0.727955        -0.616008
 H        -0.713073        -0.880247         0.204904
 H         2.466332         1.727028        -0.693125
 H         2.362914         1.648001         1.106901
 H         2.207027        -0.085967        -1.912330
 H         2.061602        -1.693545        -1.140894
 H         4.900414        -0.218141         2.723488
 H         4.022783         1.269421         1.958972
 H         2.365752        -1.850159         1.008721
