19
Iteration:  2984charge 0 multiplicity 1
 C        -0.154928        -0.135747        -0.033234
 C         1.366987        -0.073237         0.082747
 C         2.351739         1.208058         0.083949
 C         3.243286        -0.119231         0.171802
 C         2.354986        -0.691906        -0.975289
 O         4.574494        -0.214893         0.662466
 C         4.253478        -0.262424         2.117159
 O         2.853524        -0.154459         2.390089
 C         2.264362        -0.759877         1.144588
 H        -0.457203         0.239869         1.015958
 H        -0.185586         0.665292        -0.800333
 H        -0.309677        -1.167243        -0.336406
 H         2.373418         1.721934        -0.855086
 H         2.351999         1.831883         0.982702
 H         2.340740        -0.237622        -2.046947
 H         2.338109        -1.795157        -1.137385
 H         4.582158        -1.303099         2.387644
 H         4.727365         0.507031         2.746539
 H         2.144216        -1.878061         1.317155
