19
Iteration:  3001charge 0 multiplicity 1
 C        -0.209942        -0.009775        -0.079356
 C         1.352824        -0.084413         0.027466
 C         2.304501         1.097883         0.111381
 C         3.219869        -0.129542         0.174997
 C         2.419500        -0.735867        -0.980079
 O         4.513159        -0.157232         0.685517
 C         4.311997        -0.341855         2.143753
 O         2.852305        -0.146340         2.365999
 C         2.409721        -0.717454         1.181982
 H        -0.626978         0.253938         0.849809
 H        -0.847301         0.555403        -0.695511
 H        -0.740477        -1.017225        -0.230998
 H         2.448401         1.680660        -0.850445
 H         2.176243         1.688283         1.010104
 H         2.530866        -0.226363        -1.892516
 H         2.394773        -1.802352        -1.081715
 H         4.683106        -1.297294         2.492444
 H         4.821690         0.515079         2.604634
 H         2.526221        -1.776812         1.222514
