19
Iteration:  4260charge 0 multiplicity 1
 C        -0.106478        -0.125947        -0.039648
 C         1.427048        -0.106033         0.074527
 C         2.370215         1.212984         0.029994
 C         3.224710        -0.101090         0.182333
 C         2.409949        -0.786092        -0.893321
 O         4.520108        -0.092686         0.656541
 C         4.190453        -0.337745         2.131623
 O         2.863117        -0.170293         2.361223
 C         2.258217        -0.718409         1.133741
 H        -0.382301         0.415918         0.871089
 H        -0.472856         0.639768        -0.947201
 H        -0.667593        -1.201664        -0.076791
 H         2.326692         1.901957        -0.876433
 H         2.366456         1.916350         0.933338
 H         2.321254        -0.396002        -1.901391
 H         2.294970        -1.928094        -0.778271
 H         4.598382        -1.377531         2.284542
 H         4.940313         0.310361         2.702649
 H         2.168685        -1.859863         1.286567
