19
Iteration:  1430
 C        -0.105810        -0.085550         0.127086
 C         1.410867        -0.096976         0.112086
 C         2.400121         1.161226         0.030501
 C         3.311052        -0.069464         0.108390
 C         2.227366        -0.722276        -1.044267
 O         4.626503        -0.181652         0.635628
 C         4.150078        -0.343838         2.132468
 O         2.816357        -0.150336         2.388142
 C         2.330638        -0.693915         1.111549
 H        -0.389879         0.693716         0.781476
 H        -0.560881         0.127648        -0.819024
 H        -0.478123        -1.069858         0.398907
 H         2.575623         1.802754        -0.839904
 H         2.312383         1.747145         0.955940
 H         2.076534        -0.170597        -1.958351
 H         2.202252        -1.758792        -1.020388
 H         4.278497        -1.422072         2.302242
 H         4.832687         0.107928         2.876005
 H         2.291746        -1.870341         1.219593
