19
Iteration:  1668
 C        -0.172557         0.031859        -0.055163
 C         1.382356        -0.085571         0.131266
 C         2.362211         1.096854         0.104589
 C         3.264324        -0.193482         0.183269
 C         2.301216        -0.794663        -0.923034
 O         4.586496        -0.046828         0.542131
 C         4.336907        -0.355338         2.100873
 O         2.831087        -0.141568         2.452471
 C         2.272459        -0.761661         1.176684
 H        -0.639015         0.531321         0.849697
 H        -0.397775         0.580858        -0.994934
 H        -0.697766        -0.910217        -0.254397
 H         2.467723         1.618267        -0.855543
 H         2.273599         1.817160         0.867586
 H         2.460239        -0.349485        -1.932089
 H         2.247967        -1.885550        -1.071532
 H         4.607286        -1.395832         2.216248
 H         4.922213         0.296251         2.665194
 H         2.028254        -1.877757         1.193031
