19
Iteration:  2265charge 0 multiplicity 1
 C        -0.195976        -0.021202         0.065560
 C         1.338161         0.008989         0.070313
 C         2.400868         1.137672         0.142012
 C         3.229050        -0.159601         0.125076
 C         2.366765        -0.783237        -1.034999
 O         4.586122        -0.316874         0.633771
 C         4.224128        -0.092367         2.071703
 O         2.826020        -0.248762         2.358638
 C         2.343613        -0.733032         1.186206
 H        -0.646896         0.575717         1.032602
 H        -0.661897         0.393931        -0.875058
 H        -0.468208        -1.077131         0.231188
 H         2.629922         1.781451        -0.655937
 H         2.486680         1.713882         1.008523
 H         2.679387        -0.167872        -1.898214
 H         2.341577        -1.868940        -1.304989
 H         4.678319        -0.949690         2.702361
 H         4.508231         0.917256         2.331940
 H         2.292296        -1.901038         1.249234
