19
Iteration:  3807charge 0 multiplicity 1
 C        -0.169875        -0.146620        -0.086405
 C         1.376093        -0.020457         0.077139
 C         2.383226         1.147921         0.166492
 C         3.212753        -0.119012         0.197814
 C         2.321321        -0.667635        -1.082912
 O         4.577786        -0.271354         0.683575
 C         4.337270        -0.144806         2.130505
 O         2.819170        -0.209776         2.396063
 C         2.312539        -0.776035         1.150710
 H        -0.814195         0.557889         0.568759
 H        -0.565522         0.005617        -1.118353
 H        -0.351696        -1.102658         0.282492
 H         2.498485         1.811208        -0.743011
 H         2.335068         1.840874         1.036321
 H         2.500272        -0.140503        -2.072445
 H         2.239508        -1.760486        -0.901740
 H         4.671825        -1.106847         2.496660
 H         4.649026         0.842381         2.458989
 H         2.122649        -1.871934         1.293622
