19
Iteration:  4089
 C        -0.086651        -0.088508        -0.032553
 C         1.365400        -0.058745         0.047509
 C         2.326304         1.151563         0.074951
 C         3.232527        -0.149164         0.215349
 C         2.411417        -0.689750        -0.934318
 O         4.507167        -0.218242         0.690168
 C         4.282734        -0.202991         2.141663
 O         2.839386        -0.199243         2.356656
 C         2.279644        -0.769515         1.104412
 H        -0.696625         0.405797         0.912580
 H        -0.503162         0.431844        -0.900610
 H        -0.375673        -1.208589        -0.029429
 H         2.358957         1.637600        -0.925707
 H         2.342455         1.882735         0.884014
 H         2.523295        -0.013954        -1.930897
 H         2.296501        -1.809922        -0.978604
 H         4.764380        -1.171676         2.408124
 H         4.768041         0.702973         2.452399
 H         2.153934        -1.832698         1.171582
