19
Iteration:  1831
 C        -0.112783         0.018745        -0.009670
 C         1.442595        -0.023608         0.036412
 C         2.413830         1.154897         0.108177
 C         3.156419        -0.174204         0.148798
 C         2.277239        -0.739988        -1.006752
 O         4.539855        -0.308407         0.635780
 C         4.226173        -0.102208         2.006046
 O         2.864453        -0.324308         2.493794
 C         2.352810        -0.747027         1.208987
 H        -0.327110         0.340267         1.053602
 H        -0.635110         0.685682        -0.734074
 H        -0.644094        -0.899549        -0.253280
 H         2.365466         1.814378        -0.761558
 H         2.526819         1.772205         0.936515
 H         2.376447        -0.231361        -1.953196
 H         2.226064        -1.817694        -1.167551
 H         4.977832        -0.728394         2.704212
 H         4.382920         1.003693         2.106911
 H         2.122584        -1.807053         1.308022
