19
Iteration:  1133
 C        -0.129848         0.002823         0.050157
 C         1.327305        -0.137381         0.056548
 C         2.311665         1.151044         0.172227
 C         3.212081        -0.135158         0.131597
 C         2.304665        -0.586912        -1.010356
 O         4.555450        -0.265297         0.644599
 C         4.391116        -0.228418         2.089091
 O         2.837169        -0.240690         2.364798
 C         2.332672        -0.801475         1.109206
 H        -0.417563         0.696488         0.976929
 H        -0.553149         0.369447        -0.930092
 H        -0.602977        -0.978716         0.230743
 H         2.334495         1.730893        -0.778212
 H         2.356279         1.718450         1.101517
 H         2.252508         0.066895        -1.962596
 H         2.233074        -1.706060        -1.223683
 H         4.966554        -1.123134         2.475580
 H         4.680402         0.631755         2.731192
 H         2.386685        -1.830677         1.257144
