19
Iteration:  3946
 C        -0.113553        -0.074043        -0.079442
 C         1.355018        -0.073151         0.054714
 C         2.386917         1.112964         0.221732
 C         3.237629        -0.205179         0.170001
 C         2.316644        -0.625486        -1.047752
 O         4.555621        -0.264728         0.700717
 C         4.377140        -0.041417         2.086240
 O         2.819400        -0.253938         2.413100
 C         2.249615        -0.801126         1.110316
 H        -0.670536         0.640243         0.639771
 H        -0.557201         0.169923        -1.040359
 H        -0.418366        -1.152504         0.204485
 H         2.505721         1.697395        -0.687170
 H         2.360295         1.678703         1.156531
 H         2.308315        -0.254516        -2.101553
 H         2.190782        -1.682055        -1.129388
 H         4.951317        -0.749708         2.744510
 H         4.349899         0.999004         2.291559
 H         2.183412        -1.903977         1.127633
