19
Iteration:  3802
 C        -0.144320        -0.148365        -0.092798
 C         1.374432        -0.001125         0.086035
 C         2.374095         1.194728         0.155587
 C         3.227047        -0.160623         0.129125
 C         2.294019        -0.621157        -1.034849
 O         4.562070        -0.275022         0.671458
 C         4.313115        -0.158039         2.147335
 O         2.833508        -0.207834         2.402770
 C         2.321258        -0.779624         1.133122
 H        -0.718596         0.506309         0.486406
 H        -0.600516        -0.124523        -1.097690
 H        -0.367390        -1.203377         0.315957
 H         2.407661         1.695120        -0.801287
 H         2.380646         1.788958         1.068336
 H         2.559214        -0.314040        -2.032344
 H         2.245563        -1.704433        -0.927544
 H         4.612816        -1.103433         2.690542
 H         4.623477         0.797572         2.646862
 H         2.327457        -1.860085         1.392879
