19
Iteration:  1277charge 0 multiplicity 1
 C        -0.217814         0.034393         0.110444
 C         1.403014        -0.071196         0.067310
 C         2.392811         1.219442         0.042764
 C         3.215052        -0.082348         0.107133
 C         2.320930        -0.655953        -0.994710
 O         4.562591        -0.329803         0.701046
 C         4.320354        -0.060817         2.092639
 O         2.858502        -0.457359         2.395079
 C         2.321619        -0.822575         1.090590
 H        -0.455510         0.719731         1.021985
 H        -0.577930         0.492030        -0.815918
 H        -0.799302        -0.954194         0.408317
 H         2.508808         1.632115        -0.906470
 H         2.298116         1.800007         0.992181
 H         2.410791        -0.038907        -1.943789
 H         2.060118        -1.707197        -1.210810
 H         5.053286        -0.621125         2.698036
 H         4.251723         1.046515         2.393130
 H         2.359044        -1.862643         0.845877
