19
Iteration:   442charge 0 multiplicity 1
 C        -0.165772         0.005535         0.164226
 C         1.397096        -0.012193         0.074202
 C         2.380731         1.058144         0.158163
 C         3.239574        -0.285466         0.124823
 C         2.433558        -0.662196        -1.124722
 O         4.591244        -0.299713         0.654475
 C         4.301945         0.032367         2.005547
 O         2.769963        -0.295816         2.400036
 C         2.256122        -0.814393         1.153583
 H        -0.605927         0.615182         0.890296
 H        -0.620559         0.503516        -0.785539
 H        -0.537194        -0.985071         0.478716
 H         2.529213         1.766677        -0.745048
 H         2.371895         1.605073         1.086119
 H         2.435455        -0.029411        -2.016360
 H         2.219921        -1.797313        -1.278440
 H         4.943161        -0.561112         2.689190
 H         4.258627         1.155205         2.138327
 H         2.025047        -1.958554         1.213336
