19
Iteration:   592
 C        -0.119153        -0.020105         0.147051
 C         1.339622         0.016600         0.093203
 C         2.417679         1.177472         0.151664
 C         3.225780        -0.185908         0.114961
 C         2.397433        -0.757829        -1.039188
 O         4.507064        -0.257522         0.582779
 C         4.272401        -0.115857         2.089196
 O         2.828388        -0.269598         2.412435
 C         2.274572        -0.816817         1.088207
 H        -0.544569         0.589776         0.902967
 H        -0.584284         0.251157        -0.886625
 H        -0.593335        -1.106268         0.225862
 H         2.515430         1.931690        -0.665531
 H         2.465325         1.683900         1.062554
 H         2.481929        -0.253604        -2.154563
 H         2.485703        -1.852385        -1.222039
 H         4.890387        -0.806919         2.691431
 H         4.445436         0.981048         2.341237
 H         2.282522        -1.901209         1.252777
