19
Iteration:  3249
 C        -0.150165        -0.072230         0.064296
 C         1.387637        -0.062477         0.010566
 C         2.437284         1.254704         0.137253
 C         3.249188        -0.096831         0.192558
 C         2.399234        -0.720563        -1.074899
 O         4.574219        -0.343485         0.733313
 C         4.270113        -0.013081         2.081773
 O         2.807471        -0.348858         2.340389
 C         2.250588        -0.794254         1.085115
 H        -0.648819         0.663526         0.928587
 H        -0.524140         0.089207        -1.047892
 H        -0.522956        -1.062396         0.411096
 H         2.228475         1.953608        -0.668005
 H         2.323373         1.522740         1.194317
 H         2.266779        -0.338990        -2.085648
 H         2.309621        -1.835475        -1.001320
 H         4.872251        -0.421780         2.866441
 H         4.232048         1.126169         2.258896
 H         2.150407        -1.912747         1.214467
