19
Iteration:  1695
 C        -0.159203        -0.036122        -0.004336
 C         1.377560        -0.047152         0.106151
 C         2.407694         1.161357         0.055568
 C         3.208180        -0.121032         0.135297
 C         2.281116        -0.793737        -0.969044
 O         4.516063        -0.107780         0.715310
 C         4.373535        -0.466088         2.079634
 O         2.850409        -0.093861         2.362928
 C         2.308786        -0.678409         1.161997
 H        -0.612887         0.323813         0.897233
 H        -0.580090         0.328527        -0.952840
 H        -0.499812        -1.119383         0.011675
 H         2.369098         1.746529        -0.919207
 H         2.492962         1.881997         0.943552
 H         2.342618        -0.505075        -2.016996
 H         2.315283        -1.909372        -0.954316
 H         4.435321        -1.564404         2.250965
 H         4.990023         0.207328         2.786338
 H         2.226750        -1.717759         1.135010
