19
Iteration:  4663
 C        -0.101473        -0.080686         0.024714
 C         1.406607        -0.008508         0.059861
 C         2.309398         1.229183         0.173583
 C         3.237349        -0.161322         0.171290
 C         2.409891        -0.728474        -1.090026
 O         4.517559        -0.336812         0.643735
 C         4.268757        -0.103730         2.136601
 O         2.830914        -0.198349         2.392994
 C         2.282263        -0.798108         1.128367
 H        -0.525509         0.572258         0.712741
 H        -0.414453         0.051775        -1.071588
 H        -0.521194        -1.118417        -0.041636
 H         2.270954         1.735297        -0.731672
 H         2.224107         1.708072         1.176085
 H         2.475703        -0.123517        -1.944653
 H         2.542808        -1.792215        -1.116658
 H         4.779554        -0.941075         2.621034
 H         4.767977         0.852568         2.470393
 H         1.984801        -1.905246         1.300066
