19
Iteration:  3827
 C        -0.127669        -0.053865        -0.055104
 C         1.368275        -0.092595         0.047358
 C         2.332818         1.149372         0.138414
 C         3.215904        -0.219251         0.119050
 C         2.420339        -0.707356        -0.949222
 O         4.506752        -0.220281         0.660164
 C         4.299759        -0.108938         2.106952
 O         2.867292        -0.270752         2.388359
 C         2.255877        -0.744684         1.139695
 H        -0.501255         0.605908         0.742017
 H        -0.487518         0.405278        -0.871035
 H        -0.607673        -0.986723         0.030543
 H         2.404211         1.844005        -0.740889
 H         2.314488         1.623232         1.151786
 H         2.585349        -0.039991        -1.842256
 H         2.524388        -1.755473        -1.163332
 H         4.791785        -0.961162         2.695060
 H         4.400532         0.924513         2.469582
 H         2.320431        -1.823056         1.397590
