19
Iteration:  4189charge 0 multiplicity 1
 C        -0.140495        -0.025867         0.009555
 C         1.437861         0.017029         0.052939
 C         2.421893         1.185431         0.152188
 C         3.284387        -0.260760         0.088764
 C         2.366857        -0.783063        -0.976181
 O         4.531436        -0.260617         0.732855
 C         4.191140         0.080758         2.079291
 O         2.781590        -0.372393         2.365587
 C         2.315413        -0.869048         1.091101
 H        -0.476245         0.439113         1.027306
 H        -0.645201         0.644435        -0.710030
 H        -0.609566        -0.977722        -0.006189
 H         2.373133         1.868944        -0.681367
 H         2.533443         1.798667         1.021460
 H         2.633908        -0.138115        -1.939351
 H         2.125941        -1.868388        -0.941671
 H         5.007294        -0.335484         2.641073
 H         4.255127         1.119668         2.192845
 H         2.183800        -1.912257         1.062278
