19
Iteration:  3357charge 0 multiplicity 1
 C        -0.130159        -0.171550        -0.012664
 C         1.412953        -0.045178         0.102719
 C         2.344589         1.267178         0.022618
 C         3.254357        -0.102470         0.154338
 C         2.374828        -0.751576        -0.979913
 O         4.550180        -0.163163         0.664384
 C         4.243017        -0.350400         2.144208
 O         2.837092        -0.137354         2.371252
 C         2.294434        -0.763074         1.169413
 H        -0.641034         0.257417         0.936975
 H        -0.645006         0.556810        -0.720872
 H        -0.416255        -1.129171        -0.345583
 H         2.402767         1.718275        -0.963714
 H         2.124487         1.921734         0.874703
 H         2.344683        -0.187427        -1.876174
 H         2.323735        -1.845272        -1.090101
 H         4.639106        -1.382567         2.272122
 H         4.949293         0.385042         2.775457
 H         2.110818        -1.817101         1.572397
