19
Iteration:  2504charge 0 multiplicity 1
 C        -0.195397         0.065131        -0.005916
 C         1.380869        -0.153993         0.029003
 C         2.285779         1.094556         0.110452
 C         3.194508        -0.084579         0.109352
 C         2.357951        -0.754000        -1.014013
 O         4.636794        -0.247463         0.646809
 C         4.272235        -0.149743         2.163647
 O         2.884584        -0.229897         2.411296
 C         2.328942        -0.812484         1.162033
 H        -0.594880         0.563834         0.907087
 H        -0.467024         0.744417        -0.760118
 H        -0.754333        -0.757481        -0.259684
 H         2.363723         1.777740        -0.836771
 H         2.135167         1.682565         1.022045
 H         2.333525        -0.320985        -2.035155
 H         2.245204        -1.822353        -0.898400
 H         4.898125        -0.978174         2.409283
 H         4.650493         0.787415         2.704077
 H         2.269254        -1.845435         1.376257
