19
Iteration:  2561charge 0 multiplicity 1
 C        -0.149174        -0.101714         0.025678
 C         1.360632        -0.035201         0.096837
 C         2.417874         1.221108         0.087038
 C         3.268376        -0.119673         0.143357
 C         2.340534        -0.718916        -0.982911
 O         4.525159        -0.285341         0.643009
 C         4.246855        -0.179374         2.140073
 O         2.804022        -0.235372         2.398687
 C         2.329820        -0.759952         1.112653
 H        -0.628645         0.601125         0.692612
 H        -0.408206         0.102944        -1.008491
 H        -0.330768        -1.087096         0.268530
 H         2.253836         1.961219        -0.754169
 H         2.439255         1.695307         1.105154
 H         2.543425        -0.210630        -1.977493
 H         2.070954        -1.778383        -1.190332
 H         4.944566        -0.950862         2.440448
 H         4.629253         0.828638         2.444459
 H         2.351979        -1.850710         1.056083
