19
Iteration:  3048charge 0 multiplicity 1
 C        -0.082367         0.006858         0.006918
 C         1.375256        -0.050513         0.039388
 C         2.371033         1.135499         0.038007
 C         3.216913        -0.082403         0.119405
 C         2.319104        -0.805195        -0.931877
 O         4.522672        -0.056156         0.733077
 C         4.226717        -0.233969         2.110167
 O         2.859130        -0.264556         2.410765
 C         2.343106        -0.849122         1.144931
 H        -0.842482         0.644259         0.549959
 H        -0.505810         0.239675        -1.003489
 H        -0.625339        -1.012363         0.007725
 H         2.394477         1.705552        -0.857463
 H         2.563098         1.730598         0.928717
 H         2.375914        -0.304020        -1.967304
 H         2.332069        -1.847070        -1.073729
 H         4.464214        -1.274050         2.227772
 H         4.894008         0.386475         2.699098
 H         2.518309        -1.926252         1.085493
