19
Iteration:  3145charge 0 multiplicity 1
 C        -0.119983        -0.034435        -0.044900
 C         1.305559        -0.083234         0.063203
 C         2.405096         1.107238         0.063316
 C         3.183880        -0.146290         0.163120
 C         2.325656        -0.730753        -1.032566
 O         4.532620        -0.177787         0.697510
 C         4.270796        -0.120229         2.185210
 O         2.891992        -0.262179         2.396079
 C         2.335279        -0.794408         1.166746
 H        -0.691988         0.220372         0.851923
 H        -0.613534         0.679268        -0.697299
 H        -0.542434        -1.063441        -0.328806
 H         2.387758         1.851673        -0.828608
 H         2.588957         1.665771         1.059606
 H         2.448202        -0.192132        -2.042646
 H         2.342416        -1.786592        -1.262847
 H         4.911296        -1.016931         2.528346
 H         4.606602         0.853587         2.632415
 H         2.208046        -1.890175         1.039223
