19
Iteration:  2995
 C        -0.151198        -0.095651        -0.043194
 C         1.369221        -0.083613         0.008789
 C         2.327680         1.145264         0.084568
 C         3.253412        -0.113120         0.153308
 C         2.376340        -0.690006        -0.951892
 O         4.536818        -0.178811         0.669923
 C         4.279543        -0.320913         2.139403
 O         2.839745        -0.138193         2.377732
 C         2.366748        -0.772395         1.206104
 H        -0.796306         0.227386         0.909399
 H        -0.714516         0.607840        -0.811930
 H        -0.881316        -0.898828        -0.311834
 H         2.469367         1.749142        -0.787442
 H         2.251010         1.821204         0.953304
 H         2.501637        -0.070944        -1.931553
 H         2.359176        -1.815536        -0.962628
 H         4.619820        -1.304780         2.568424
 H         4.929269         0.502282         2.466796
 H         2.294028        -1.919080         1.195157
