19
Iteration:  3049
 C        -0.093195         0.000474         0.009547
 C         1.377645        -0.050180         0.041275
 C         2.374469         1.144939         0.033190
 C         3.218288        -0.086395         0.119441
 C         2.318356        -0.799067        -0.938984
 O         4.523371        -0.056628         0.737644
 C         4.227116        -0.235804         2.113605
 O         2.865567        -0.263314         2.412816
 C         2.341390        -0.847596         1.136841
 H        -0.865309         0.676800         0.554265
 H        -0.523031         0.243776        -1.027156
 H        -0.627995        -1.021989         0.018477
 H         2.397765         1.701064        -0.860241
 H         2.559400         1.711348         0.955163
 H         2.377025        -0.330431        -1.982828
 H         2.331619        -1.883204        -1.091715
 H         4.471580        -1.278455         2.255277
 H         4.890687         0.401128         2.700815
 H         2.511287        -1.951631         1.112966
