19
Iteration:   866charge 0 multiplicity 1
 C        -0.155315        -0.123787         0.070131
 C         1.343845         0.058874         0.123549
 C         2.341558         1.228876         0.215719
 C         3.236840        -0.222532         0.141221
 C         2.337840        -0.639094        -1.085764
 O         4.569714        -0.400237         0.660312
 C         4.334592        -0.061678         2.012106
 O         2.858179        -0.320908         2.346653
 C         2.270310        -0.713667         1.158299
 H        -0.650063         0.052160         0.981160
 H        -0.755323         0.527265        -0.631846
 H        -0.312907        -1.207227        -0.240755
 H         2.481635         1.781369        -0.742750
 H         2.581287         1.925721         1.099879
 H         2.467270        -0.084843        -1.992342
 H         2.305831        -1.743215        -1.279549
 H         5.043725        -0.601488         2.704890
 H         4.433182         1.011813         2.235794
 H         1.958258        -1.798516         1.344223
