19
Iteration:  1689
 C        -0.173281        -0.040079        -0.020366
 C         1.305563        -0.047143         0.088935
 C         2.418036         1.147987         0.050975
 C         3.238799        -0.146373         0.134909
 C         2.308197        -0.787315        -0.948571
 O         4.570198        -0.086099         0.686476
 C         4.269350        -0.418225         2.074899
 O         2.887701        -0.124643         2.364297
 C         2.327765        -0.684542         1.214200
 H        -0.625129         0.462167         0.893596
 H        -0.632009         0.376670        -0.923608
 H        -0.478255        -1.064010        -0.108072
 H         2.405223         1.781219        -0.795174
 H         2.588566         1.784130         0.884753
 H         2.208678        -0.431054        -1.999913
 H         2.229689        -1.868833        -0.933814
 H         4.446772        -1.502788         2.167176
 H         4.901515         0.082216         2.770637
 H         2.213153        -1.868493         1.307724
