19
Iteration:  4720charge 0 multiplicity 1
 C        -0.096687         0.047102        -0.005014
 C         1.409780        -0.046861         0.059712
 C         2.379210         1.063611         0.094214
 C         3.244516        -0.230542         0.133136
 C         2.310772        -0.715354        -0.968337
 O         4.492189        -0.155510         0.756099
 C         4.187708         0.032978         2.104885
 O         2.882559        -0.410658         2.347279
 C         2.350543        -0.868265         1.071576
 H        -0.364733         0.747466         0.802676
 H        -0.406034         0.589528        -0.868864
 H        -0.599629        -0.883500         0.379809
 H         2.601689         1.593211        -0.852677
 H         2.596944         1.662892         1.032066
 H         2.265491        -0.236261        -1.963270
 H         2.246401        -1.747543        -1.203820
 H         4.769258        -0.588980         2.705055
 H         4.208628         1.124949         2.459491
 H         2.170791        -1.947376         1.186721
