19
Iteration:  1894charge 0 multiplicity 1
 C        -0.111652         0.065404         0.098937
 C         1.318057        -0.106515         0.061609
 C         2.396448         1.143275         0.137632
 C         3.206604        -0.145808         0.170417
 C         2.415318        -0.741913        -1.065272
 O         4.471877        -0.325486         0.639313
 C         4.309417        -0.044061         2.032855
 O         2.836875        -0.324459         2.391374
 C         2.249046        -0.818664         1.167441
 H        -0.309772         0.961598         0.804710
 H        -0.409907         0.470736        -0.872160
 H        -0.625673        -0.846578         0.380920
 H         2.547118         1.741172        -0.840415
 H         2.595345         1.861161         1.060342
 H         2.586816        -0.143029        -1.990478
 H         2.502629        -1.817150        -1.260132
 H         4.961995        -0.555969         2.769262
 H         4.486064         1.039928         2.096607
 H         2.232813        -1.890458         1.330554
