19
Iteration:   464
 C        -0.097063        -0.047698         0.059425
 C         1.385584        -0.092644         0.095495
 C         2.410671         1.177747         0.164379
 C         3.208511        -0.107073         0.115704
 C         2.288811        -0.740007        -0.969334
 O         4.488662        -0.265011         0.638940
 C         4.232833        -0.136981         2.091621
 O         2.877800        -0.238824         2.326026
 C         2.320916        -0.787708         1.098497
 H        -0.444160         0.642225         0.777289
 H        -0.537513         0.393701        -0.912825
 H        -0.494924        -0.958236         0.474641
 H         2.517326         1.862792        -0.751440
 H         2.457682         1.721829         1.103086
 H         2.396417        -0.277947        -1.954305
 H         2.479560        -1.867090        -0.928800
 H         4.768466        -0.956219         2.623582
 H         4.577106         0.914423         2.333984
 H         2.324346        -1.947561         1.135543
