19
Iteration:   295charge 0 multiplicity 1
 C        -0.102818        -0.184963         0.053843
 C         1.353449         0.005050        -0.025473
 C         2.382882         1.158685        -0.010694
 C         3.254161        -0.075707         0.175065
 C         2.276773        -0.696253        -0.975174
 O         4.554484        -0.107733         0.711634
 C         4.266131        -0.490211         2.067964
 O         2.902966        -0.139401         2.417233
 C         2.256895        -0.609559         1.177842
 H        -0.673172         0.526519         0.803505
 H        -0.639241        -0.286666        -0.849667
 H        -0.213082        -1.176737         0.614562
 H         2.401151         1.634227        -0.908717
 H         2.385731         1.854361         0.849019
 H         2.365140        -0.126927        -1.913998
 H         2.148454        -1.692844        -1.131205
 H         4.352816        -1.660871         2.195142
 H         5.052222        -0.029862         2.740640
 H         2.168215        -1.698168         1.192653
