19
Iteration:  3442charge 0 multiplicity 1
 C        -0.134043         0.024505        -0.016819
 C         1.335187        -0.084809         0.050955
 C         2.325609         1.074231         0.111881
 C         3.219046        -0.055312         0.115471
 C         2.357603        -0.775974        -0.996008
 O         4.610918        -0.096155         0.690967
 C         4.300002        -0.230526         2.187359
 O         2.852606        -0.270019         2.351683
 C         2.309171        -0.804499         1.121077
 H        -0.555957         0.836389         0.624567
 H        -0.449282         0.155990        -1.053218
 H        -0.628310        -0.884753         0.425244
 H         2.262571         1.744397        -0.767712
 H         2.203779         1.774421         0.972854
 H         2.446393        -0.610243        -2.057823
 H         2.197963        -1.935203        -0.840329
 H         4.885403        -1.131371         2.472849
 H         4.466758         0.735008         2.849765
 H         2.123381        -1.935526         1.017072
