19
Iteration:  3354
 C        -0.166800        -0.154996        -0.004257
 C         1.422332        -0.050149         0.092161
 C         2.335361         1.245945         0.016245
 C         3.280082        -0.106039         0.134547
 C         2.389033        -0.746491        -0.962550
 O         4.536962        -0.161944         0.671369
 C         4.280020        -0.338737         2.119442
 O         2.828264        -0.151369         2.371712
 C         2.269624        -0.761094         1.203336
 H        -0.593862         0.193238         0.861626
 H        -0.518070         0.588592        -0.707500
 H        -0.410697        -1.103301        -0.385225
 H         2.326897         1.798418        -0.958750
 H         2.139433         1.949058         0.834568
 H         2.468388        -0.126924        -1.859955
 H         2.271320        -1.852931        -1.177113
 H         4.607864        -1.398619         2.315373
 H         4.836025         0.391268         2.766440
 H         2.228937        -1.823630         1.648954
