19
Iteration:  4389
 C        -0.039703        -0.021664         0.055961
 C         1.394967        -0.044698         0.058439
 C         2.433328         1.138559         0.104196
 C         3.295077        -0.182394         0.096761
 C         2.397417        -0.772705        -0.995447
 O         4.511679        -0.273411         0.658863
 C         4.134286         0.031188         2.139493
 O         2.802160        -0.349394         2.405407
 C         2.254514        -0.742810         1.123292
 H        -0.437412         0.086452         0.996166
 H        -0.623714         0.673144        -0.597832
 H        -0.421756        -0.955050        -0.273450
 H         2.520543         1.738421        -0.842862
 H         2.395154         1.619111         1.103702
 H         2.300199        -0.167788        -1.880783
 H         2.219794        -1.910458        -1.202922
 H         4.900502        -0.654806         2.525508
 H         4.432319         1.116720         2.266667
 H         2.168518        -1.795715         1.101265
