19
Iteration:   604charge 0 multiplicity 1
 C        -0.152117         0.015232         0.129501
 C         1.416071        -0.029989         0.102107
 C         2.417840         1.141249         0.218612
 C         3.226874        -0.148674         0.105415
 C         2.414603        -0.720876        -0.997621
 O         4.514332        -0.330222         0.627131
 C         4.191059         0.027319         1.988851
 O         2.791396        -0.340390         2.320964
 C         2.339288        -0.842323         1.150556
 H        -0.502262         0.693257         0.902079
 H        -0.554978         0.443716        -0.902262
 H        -0.460637        -1.069340         0.411127
 H         2.574524         1.760044        -0.678736
 H         2.452593         1.644309         1.135270
 H         2.468273        -0.226291        -2.054558
 H         2.113973        -1.769145        -0.888176
 H         4.915199        -0.618239         2.591113
 H         4.412949         1.115198         2.182132
 H         2.357133        -1.899103         0.974492
