19
Iteration:  3615
 C        -0.166014        -0.055157        -0.033222
 C         1.363287        -0.098239         0.049107
 C         2.429449         1.189988         0.159915
 C         3.258957        -0.180012         0.180201
 C         2.327721        -0.701936        -1.040087
 O         4.549526        -0.197086         0.677227
 C         4.226088        -0.073622         2.126173
 O         2.854555        -0.320950         2.376050
 C         2.298929        -0.796439         1.157389
 H        -0.492338         0.896842         0.380076
 H        -0.518895         0.090909        -1.048955
 H        -0.611759        -1.095352         0.323865
 H         2.313158         1.701465        -0.799114
 H         2.462556         1.750226         1.112861
 H         2.408989        -0.148819        -1.951371
 H         2.456342        -1.834543        -1.123420
 H         5.012069        -0.830008         2.477279
 H         4.538634         0.949541         2.623510
 H         2.019552        -1.952701         1.175266
