19
Iteration:  4976charge 0 multiplicity 1
 C        -0.106624        -0.030812        -0.065904
 C         1.339863        -0.065156         0.072944
 C         2.401222         1.145644         0.114123
 C         3.223776        -0.220458         0.154811
 C         2.321903        -0.733981        -0.968531
 O         4.519220        -0.172073         0.719890
 C         4.288392        -0.163798         2.131639
 O         2.858083        -0.229209         2.317454
 C         2.304635        -0.752751         1.167110
 H        -0.635540         0.080202         0.961209
 H        -0.450072         0.663266        -0.862012
 H        -0.511561        -1.024868        -0.270427
 H         2.383099         1.684798        -0.824956
 H         2.524758         1.794955         1.027069
 H         2.398854        -0.284475        -1.894241
 H         2.272321        -1.748418        -1.154546
 H         4.686587        -1.124648         2.462849
 H         4.760439         0.768026         2.689929
 H         2.170416        -1.872675         1.208018
