19
Iteration:  1797
 C        -0.280505         0.149806        -0.006892
 C         1.311800        -0.090996         0.132984
 C         2.382655         1.111144         0.093626
 C         3.243467        -0.133133         0.110625
 C         2.407857        -0.836740        -0.983336
 O         4.537602        -0.206505         0.698015
 C         4.295994        -0.166315         2.052274
 O         2.890507        -0.289160         2.364400
 C         2.358115        -0.808697         1.150252
 H        -0.569520         0.657382         0.980933
 H        -0.475594         0.913073        -0.756001
 H        -0.776826        -0.800907        -0.027754
 H         2.243520         1.580004        -0.865248
 H         2.463114         1.713031         0.991370
 H         2.429238        -0.323804        -1.949403
 H         2.489511        -1.907507        -0.965207
 H         4.893355        -0.955558         2.690372
 H         4.521264         0.846368         2.498561
 H         2.215664        -1.840431         1.022434
