19
Iteration:  3676charge 0 multiplicity 1
 C        -0.147528        -0.102976         0.012579
 C         1.401522        -0.008267        -0.017602
 C         2.309216         1.131422         0.084893
 C         3.206104        -0.166877         0.198608
 C         2.396807        -0.707461        -0.986230
 O         4.516956        -0.207481         0.696540
 C         4.282174        -0.217420         2.107773
 O         2.846669        -0.195964         2.368940
 C         2.328499        -0.718620         1.161969
 H        -0.721802         0.148598         1.031814
 H        -0.677534         0.568662        -0.894913
 H        -0.499801        -1.130486        -0.246242
 H         2.439598         1.679701        -0.875215
 H         2.233070         1.794667         0.976190
 H         2.775893        -0.279835        -1.952303
 H         2.445302        -1.794421        -1.198818
 H         4.687910        -1.153279         2.512391
 H         4.685652         0.550288         2.745363
 H         2.404891        -1.784171         1.324700
