19
Iteration:  2700
 C        -0.087438        -0.114003        -0.047810
 C         1.391117        -0.050173         0.050286
 C         2.393181         1.148937         0.201626
 C         3.246994        -0.144096         0.122357
 C         2.323013        -0.694316        -0.964826
 O         4.533092        -0.290275         0.653799
 C         4.274824        -0.097988         2.116415
 O         2.800082        -0.239077         2.356747
 C         2.320713        -0.722359         1.122594
 H        -0.617259         0.618256         0.694230
 H        -0.484331         0.433179        -0.916070
 H        -0.508261        -1.148559         0.015282
 H         2.475323         1.946435        -0.553809
 H         2.363932         1.417697         1.243986
 H         2.320897        -0.306697        -2.031188
 H         2.181156        -1.742538        -0.961892
 H         4.646066        -1.013351         2.568158
 H         4.608724         0.855318         2.521406
 H         2.250194        -1.846083         1.254276
