19
Iteration:  3639charge 0 multiplicity 1
 C        -0.115057        -0.133144        -0.020455
 C         1.363207         0.001454         0.076490
 C         2.343727         1.161917         0.171187
 C         3.241263        -0.150791         0.148488
 C         2.326710        -0.681413        -1.011573
 O         4.568748        -0.288247         0.707417
 C         4.259383        -0.173413         2.100035
 O         2.794326        -0.216546         2.348785
 C         2.360677        -0.708490         1.138889
 H        -0.769512         0.611350         0.513146
 H        -0.359045         0.003554        -1.139895
 H        -0.273872        -1.291994         0.128992
 H         2.376089         1.807159        -0.744224
 H         2.356886         1.651740         1.159387
 H         2.419375        -0.154757        -2.003254
 H         2.166962        -1.767753        -0.998904
 H         4.831155        -0.953081         2.659194
 H         4.638000         0.865267         2.429153
 H         2.358759        -1.829921         1.077270
