19
Iteration:  2157charge 0 multiplicity 1
 C        -0.159151        -0.041388         0.058094
 C         1.372579        -0.034015         0.059605
 C         2.326343         1.215905         0.101475
 C         3.232336        -0.208674         0.115558
 C         2.338199        -0.695365        -1.064034
 O         4.620636        -0.443078         0.704657
 C         4.266712        -0.035708         2.086355
 O         2.896331        -0.263132         2.396932
 C         2.231096        -0.741173         1.198642
 H        -0.367432         0.396067         1.052615
 H        -0.562116         0.653776        -0.678676
 H        -0.627338        -0.950665        -0.196820
 H         2.536381         1.765224        -0.798385
 H         2.221280         1.857885         0.938547
 H         2.195514        -0.068478        -1.923773
 H         2.268169        -1.733082        -1.402075
 H         4.892188        -0.727906         2.819845
 H         4.402823         1.022294         2.036818
 H         2.389695        -1.785879         1.076733
