19
Iteration:  3269charge 0 multiplicity 1
 C        -0.093111        -0.063141         0.007279
 C         1.318875        -0.010469         0.021411
 C         2.320970         1.143055         0.119414
 C         3.256879        -0.194445         0.116902
 C         2.393992        -0.683824        -0.997360
 O         4.535561        -0.261701         0.688506
 C         4.223510        -0.037584         2.119969
 O         2.831304        -0.348043         2.389779
 C         2.344637        -0.765919         1.126931
 H        -0.397080         0.677640         0.913994
 H        -0.647345         0.268013        -0.953885
 H        -0.538198        -0.968475         0.370581
 H         2.546730         1.552396        -0.813831
 H         2.315827         1.706618         1.029308
 H         2.644825        -0.197856        -1.879789
 H         2.325887        -1.768165        -1.164782
 H         4.824568        -0.711569         2.725812
 H         4.499864         1.046371         2.463227
 H         2.278274        -1.850110         1.094423
