19
Iteration:  3800charge 0 multiplicity 1
 C        -0.127920        -0.157128        -0.085765
 C         1.368977         0.006783         0.083599
 C         2.369732         1.210362         0.151493
 C         3.237621        -0.173230         0.105395
 C         2.292273        -0.607462        -1.006473
 O         4.554714        -0.274105         0.669886
 C         4.293991        -0.169678         2.153070
 O         2.839235        -0.205553         2.400108
 C         2.323085        -0.778747         1.135012
 H        -0.714949         0.554446         0.524969
 H        -0.604188        -0.162812        -1.192622
 H        -0.385134        -1.218312         0.309216
 H         2.379026         1.675441        -0.815545
 H         2.401728         1.765713         1.069595
 H         2.538345        -0.356063        -2.012470
 H         2.237858        -1.766218        -0.998000
 H         4.646670        -1.036937         2.731661
 H         4.637636         0.744435         2.685045
 H         2.381681        -1.833237         1.355232
