19
Iteration:   161charge 0 multiplicity 1
 C        -0.233024        -0.052865         0.021572
 C         1.348278        -0.002252         0.033869
 C         2.426741         1.142507         0.171208
 C         3.238679        -0.271993         0.145933
 C         2.346295        -0.607351        -1.077927
 O         4.611174        -0.326377         0.647379
 C         4.261735         0.008898         2.056816
 O         2.883166        -0.356835         2.466956
 C         2.245180        -0.788846         1.140934
 H        -0.728599         0.223893         1.038028
 H        -0.611740         0.648599        -0.734312
 H        -0.562230        -1.085185         0.044741
 H         2.638767         1.838331        -0.624018
 H         2.464625         1.690523         1.036402
 H         2.609059        -0.153529        -1.978719
 H         2.122666        -1.657341        -1.357988
 H         5.112368        -0.302893         2.808338
 H         4.269100         1.109728         2.025187
 H         2.087218        -1.872771         1.219025
