19
Iteration:  4867charge 0 multiplicity 1
 C        -0.170004         0.029459        -0.016881
 C         1.375475        -0.108855         0.135246
 C         2.354766         1.082208         0.074585
 C         3.251525        -0.130341         0.144416
 C         2.377121        -0.796955        -1.035359
 O         4.537410        -0.033211         0.747811
 C         4.259858        -0.309988         2.112462
 O         2.834856        -0.202894         2.321669
 C         2.331300        -0.814014         1.116523
 H        -0.426801         0.936698         0.522777
 H        -0.590905         0.128253        -0.989560
 H        -0.557436        -0.849596         0.431736
 H         2.305899         1.860571        -0.729645
 H         2.427526         1.649680         1.030821
 H         2.422905        -0.186975        -1.917861
 H         2.269813        -1.946782        -1.109010
 H         4.569228        -1.224992         2.543228
 H         4.744335         0.494281         2.681962
 H         2.432789        -1.839886         1.264416
