19
Iteration:   406charge 0 multiplicity 1
 C        -0.071736         0.098327         0.128682
 C         1.403800        -0.020352         0.164411
 C         2.381336         1.094798         0.125867
 C         3.300202        -0.220398         0.023952
 C         2.279798        -0.772993        -1.030945
 O         4.497404        -0.296181         0.714668
 C         4.168024         0.113499         2.011059
 O         2.824923        -0.453902         2.414186
 C         2.382307        -0.793098         1.064609
 H        -0.350367         0.492671         1.092804
 H        -0.383983         0.738080        -0.741845
 H        -0.571099        -0.892144        -0.191434
 H         2.519730         1.816327        -0.630063
 H         2.338073         1.526095         1.128961
 H         2.351796        -0.452016        -2.089296
 H         2.191409        -1.828546        -0.969269
 H         5.008603        -0.108408         2.775642
 H         4.172753         1.242121         1.895729
 H         2.354200        -1.887585         1.031809
