19
Iteration:   243
 C        -0.114231         0.099965         0.060468
 C         1.396375        -0.097384         0.014852
 C         2.250627         1.134972         0.114905
 C         3.196989        -0.203799         0.157610
 C         2.341463        -0.775668        -1.016504
 O         4.525670        -0.067095         0.642394
 C         4.283474        -0.241647         2.132480
 O         2.851800        -0.217649         2.375903
 C         2.399284        -0.904317         1.184479
 H        -0.285320         0.686969         0.949560
 H        -0.538822         0.628481        -0.837989
 H        -0.719340        -0.868570        -0.010058
 H         2.448932         1.703061        -0.878581
 H         2.225022         1.914086         0.982850
 H         2.471936        -0.370812        -2.110997
 H         2.397573        -1.911591        -1.141682
 H         4.632996        -1.205808         2.355216
 H         4.890238         0.541434         2.645186
 H         2.302052        -2.046136         1.190075
