19
Iteration:  1769
 C         0.006764         0.054134         0.028987
 C         1.401698        -0.040373         0.076583
 C         2.370608         1.066397         0.128055
 C         3.288941        -0.178755         0.111833
 C         2.247092        -0.736686        -0.965989
 O         4.537422        -0.156516         0.590510
 C         4.225699        -0.244161         2.159998
 O         2.817962        -0.174697         2.376754
 C         2.308430        -0.819160         1.142101
 H        -0.295730         0.552368         0.919776
 H        -0.319480         0.448898        -0.978901
 H        -0.464022        -0.935629         0.394218
 H         2.217170         1.564477        -0.894260
 H         2.329440         1.708576         1.048102
 H         2.227476        -0.232666        -1.956527
 H         2.068327        -1.872885        -1.174058
 H         4.651776        -1.168741         2.485037
 H         4.593723         0.676582         2.531680
 H         2.032129        -1.996059         1.182048
