19
Iteration:   113charge 0 multiplicity 1
 C        -0.155431         0.100048         0.089515
 C         1.393388        -0.091036         0.027910
 C         2.256364         1.085694         0.104047
 C         3.271755        -0.115932         0.125248
 C         2.367875        -0.793407        -0.952057
 O         4.560816        -0.114160         0.647244
 C         4.229306        -0.230587         2.097310
 O         2.816940        -0.296096         2.379477
 C         2.424908        -0.801963         1.110574
 H        -0.392794         0.811879         0.767520
 H        -0.511506         0.578953        -0.941744
 H        -0.732485        -0.742194         0.506742
 H         2.230804         1.802343        -0.768445
 H         2.167790         1.779753         1.023768
 H         2.451437        -0.428740        -2.031447
 H         2.268103        -1.898299        -1.030430
 H         4.691434        -1.191374         2.302145
 H         4.769259         0.560730         2.664756
 H         2.471350        -1.886185         1.062067
