19
Iteration:  4798
 C        -0.169032        -0.099855        -0.062108
 C         1.417900         0.010384         0.090743
 C         2.467518         1.144806         0.149357
 C         3.302302        -0.215683         0.101222
 C         2.293228        -0.685264        -0.945496
 O         4.576100        -0.284836         0.632361
 C         4.228592        -0.062394         2.104072
 O         2.800686        -0.293607         2.398220
 C         2.298176        -0.763555         1.150454
 H        -0.630195         0.034672         0.993291
 H        -0.747903         0.489633        -0.740532
 H        -0.279381        -1.123232        -0.496045
 H         2.449398         1.879254        -0.675470
 H         2.338284         1.821517         0.968958
 H         2.378613        -0.003628        -1.836850
 H         2.088470        -1.698628        -0.988506
 H         4.781891        -0.661883         2.705570
 H         4.377433         1.056369         2.462460
 H         2.070196        -1.830238         1.271236
