19
Iteration:  3101
 C        -0.079711        -0.151408         0.039507
 C         1.435157        -0.047520         0.103806
 C         2.334410         1.232613         0.171878
 C         3.217537        -0.080898         0.073186
 C         2.461968        -0.734730        -1.019209
 O         4.438734        -0.267885         0.637832
 C         4.233595        -0.230806         2.170193
 O         2.795599        -0.186393         2.334999
 C         2.314632        -0.708292         1.148665
 H        -0.488895         0.625667         0.727304
 H        -0.417248         0.336210        -0.901850
 H        -0.491002        -1.246178         0.248520
 H         2.412635         1.548976        -0.915091
 H         2.428620         1.844960         1.116008
 H         2.435648        -0.330662        -2.096830
 H         2.427305        -1.770545        -1.194423
 H         4.638794        -1.254884         2.552993
 H         4.762726         0.640540         2.644287
 H         2.439202        -1.811553         1.210865
