19
Iteration:   615charge 0 multiplicity 1
 C        -0.074480         0.052376         0.102006
 C         1.400227        -0.073418         0.124070
 C         2.401705         1.115603         0.217388
 C         3.274755        -0.190965         0.156943
 C         2.277159        -0.688451        -0.977226
 O         4.553511        -0.359726         0.702686
 C         4.213597         0.102228         1.967063
 O         2.840494        -0.388186         2.291432
 C         2.312783        -0.830572         1.053339
 H        -0.321812         0.724329         0.914490
 H        -0.629721         0.386363        -0.877666
 H        -0.649641        -0.933117         0.301772
 H         2.314646         1.792583        -0.639365
 H         2.346478         1.683105         1.100757
 H         2.334150        -0.160874        -2.006173
 H         2.421751        -1.779241        -1.166957
 H         4.913731        -0.305681         2.758923
 H         4.109095         1.232959         2.045164
 H         2.107302        -1.873600         1.152512
