19
Iteration:  3813
 C        -0.187171        -0.111803        -0.056385
 C         1.355578        -0.035772         0.040924
 C         2.383015         1.133030         0.169206
 C         3.233425        -0.099940         0.234901
 C         2.375790        -0.722482        -1.066402
 O         4.574442        -0.253207         0.698579
 C         4.323509        -0.148782         2.081217
 O         2.812191        -0.214754         2.377731
 C         2.281797        -0.761985         1.192318
 H        -0.698841         0.533809         0.593924
 H        -0.435564         0.090889        -1.126513
 H        -0.492142        -1.209924         0.215267
 H         2.584097         1.816228        -0.640556
 H         2.293537         1.764026         1.056791
 H         2.300521        -0.082501        -1.942355
 H         2.288489        -1.812013        -1.226883
 H         4.969611        -1.001002         2.495694
 H         4.752127         0.838276         2.374122
 H         1.975455        -1.819980         1.048969
