19
Iteration:  2209
 C        -0.168964         0.135744         0.007849
 C         1.361018        -0.053153         0.125862
 C         2.389728         1.070184         0.099076
 C         3.304809        -0.172981         0.051379
 C         2.254703        -0.809369        -0.997565
 O         4.584667        -0.153223         0.642642
 C         4.282395        -0.016550         2.141139
 O         2.860250        -0.415751         2.411437
 C         2.285966        -0.851153         1.162089
 H        -0.606605         0.913352         0.793546
 H        -0.292114         0.554028        -1.003834
 H        -0.778349        -0.808857         0.021192
 H         2.436997         1.659370        -0.769109
 H         2.488528         1.658372         0.995210
 H         2.352772        -0.402352        -1.999261
 H         2.269804        -1.934939        -0.998972
 H         5.051121        -0.624147         2.712016
 H         4.431233         1.033259         2.327223
 H         1.929470        -1.928111         1.194206
