19
Iteration:  4642
 C        -0.161979        -0.076631        -0.060921
 C         1.374714        -0.110543         0.079627
 C         2.383154         1.075411         0.121479
 C         3.254368        -0.155431         0.207303
 C         2.342884        -0.652611        -0.987506
 O         4.551905        -0.236256         0.684301
 C         4.267049        -0.218369         2.075380
 O         2.834488        -0.155064         2.332245
 C         2.303089        -0.707778         1.203074
 H        -0.518102         0.359599         0.821806
 H        -0.510044         0.437305        -0.999367
 H        -0.616640        -1.131606        -0.202217
 H         2.429192         1.635545        -0.791752
 H         2.373747         1.549513         1.140532
 H         2.519327         0.019725        -1.857430
 H         2.135263        -1.709814        -1.209272
 H         4.703028        -1.031874         2.588658
 H         4.585676         0.748354         2.565223
 H         2.471381        -1.805118         1.232612
