19
Iteration:  2115
 C        -0.091835        -0.036560         0.047736
 C         1.426976        -0.026350         0.077706
 C         2.434833         1.194237         0.091961
 C         3.279934        -0.214004         0.094400
 C         2.298534        -0.767435        -0.957937
 O         4.556355        -0.220661         0.650949
 C         4.187990        -0.184608         1.999001
 O         2.789846        -0.242567         2.398725
 C         2.331454        -0.759749         1.195028
 H        -0.233126         0.374951         1.010309
 H        -0.620156         0.536281        -0.743153
 H        -0.537388        -1.035031         0.058250
 H         2.456102         2.008764        -0.777867
 H         2.593846         1.609451         1.103108
 H         2.209619        -0.202377        -1.892589
 H         2.019288        -1.821980        -1.026518
 H         4.814756        -1.018566         2.515957
 H         4.401534         0.895960         2.214049
 H         1.859836        -1.747878         1.380298
