19
Iteration:  1289
 C        -0.163596        -0.016402         0.118899
 C         1.342883         0.029064         0.053483
 C         2.289739         1.259368         0.098718
 C         3.288432        -0.121923         0.143945
 C         2.313322        -0.635150        -1.060438
 O         4.604443        -0.425659         0.683061
 C         4.261511        -0.112289         2.038264
 O         2.855778        -0.414869         2.444820
 C         2.364566        -0.749200         1.111880
 H        -0.666522         0.606934         0.898179
 H        -0.627030         0.283768        -0.848034
 H        -0.416108        -1.177040         0.136375
 H         2.392620         1.851654        -0.759516
 H         2.285245         2.003752         0.899051
 H         2.319018        -0.121236        -2.065713
 H         2.240011        -1.782831        -1.108718
 H         4.894507        -0.646273         2.744170
 H         4.455647         1.022490         2.075038
 H         2.315035        -1.790289         1.143713
