19
Iteration:   498charge 0 multiplicity 1
 C        -0.186812        -0.074212        -0.021681
 C         1.339915        -0.048468         0.097228
 C         2.304762         1.154109        -0.026141
 C         3.213070        -0.131795         0.150157
 C         2.298463        -0.748966        -0.941832
 O         4.529989        -0.090128         0.643973
 C         4.299510        -0.426186         2.098429
 O         2.990661        -0.180728         2.461933
 C         2.329396        -0.664743         1.201587
 H        -0.575965         0.516606         0.792943
 H        -0.596583         0.325019        -0.988198
 H        -0.667900        -0.982987        -0.117320
 H         2.353352         1.748570        -0.983524
 H         2.416938         1.792166         0.894862
 H         2.351838        -0.304376        -1.916752
 H         2.350080        -1.879396        -1.134805
 H         4.659587        -1.407296         2.402973
 H         4.862849         0.300551         2.730193
 H         2.253384        -1.825603         1.151470
