19
Iteration:  4993
 C        -0.157266         0.033937        -0.005468
 C         1.381680        -0.050011         0.035979
 C         2.319386         1.121174         0.002966
 C         3.276739        -0.098086         0.147343
 C         2.346096        -0.752129        -1.039137
 O         4.571155        -0.203959         0.682406
 C         4.283455        -0.157690         2.152386
 O         2.830503        -0.305018         2.499456
 C         2.322619        -0.824565         1.149987
 H        -0.561214         0.396273         0.893372
 H        -0.346937         0.647156        -0.887266
 H        -0.706753        -0.947063        -0.190682
 H         2.475366         1.602763        -1.001369
 H         2.142428         1.757488         0.868119
 H         2.333875        -0.075867        -2.020104
 H         2.216226        -1.921231        -1.046615
 H         4.903667        -0.863085         2.729038
 H         4.392864         0.841021         2.407300
 H         2.368664        -1.911255         1.229134
