19
Iteration:   367
 C        -0.167538         0.097944         0.016629
 C         1.316919        -0.058209         0.080780
 C         2.340739         1.041052         0.078136
 C         3.186965        -0.188985         0.119536
 C         2.329848        -0.771063        -1.031310
 O         4.495463        -0.169406         0.668329
 C         4.334656        -0.118745         2.091602
 O         2.916433        -0.289097         2.472151
 C         2.365865        -0.794125         1.147498
 H        -0.671344         0.341302         0.955006
 H        -0.463855         0.871085        -0.772669
 H        -0.587593        -0.843340        -0.273396
 H         2.346296         1.594536        -0.985264
 H         2.450678         1.667775         0.962854
 H         2.560869        -0.187536        -1.928827
 H         2.403859        -1.951504        -1.160788
 H         5.021031        -0.887681         2.388329
 H         4.585347         0.809229         2.586752
 H         2.187935        -1.917130         1.164949
