19
Iteration:   781
 C        -0.184735        -0.027582         0.118449
 C         1.339512        -0.072052         0.068808
 C         2.293847         1.196396        -0.103045
 C         3.230646        -0.088990         0.088304
 C         2.359297        -0.729050        -1.052721
 O         4.491944        -0.025849         0.749495
 C         4.352957        -0.489439         2.094354
 O         2.918101        -0.254560         2.504257
 C         2.345932        -0.716262         1.139725
 H        -0.504511         0.710841         0.863123
 H        -0.486865         0.161110        -0.964308
 H        -0.602124        -0.927877         0.333492
 H         2.268028         1.734627        -0.949490
 H         2.575251         1.819677         0.759724
 H         2.183660        -0.245715        -2.015473
 H         2.162092        -1.914007        -1.177045
 H         4.657404        -1.521633         2.177493
 H         4.874784         0.307924         2.577863
 H         2.377374        -1.848333         1.309011
