19
Iteration:  4554charge 0 multiplicity 1
 C        -0.076021        -0.099091         0.034271
 C         1.377550        -0.107147         0.060376
 C         2.320190         1.202041         0.060746
 C         3.289313        -0.109656         0.133450
 C         2.367180        -0.769601        -0.977558
 O         4.576582        -0.101467         0.729706
 C         4.227793        -0.398380         2.107753
 O         2.787748        -0.107192         2.334998
 C         2.297887        -0.737885         1.139300
 H        -0.420205         0.522614         0.811184
 H        -0.374060         0.460278        -0.926232
 H        -0.568827        -1.059497         0.187567
 H         2.506618         1.834118        -0.836323
 H         2.192504         1.702742         1.031305
 H         2.173832        -0.347847        -2.006538
 H         2.335816        -1.952722        -0.995332
 H         4.476106        -1.433907         2.363071
 H         4.815767         0.324603         2.681034
 H         2.301551        -1.807589         1.169086
