19
Iteration:  4451
 C        -0.097075         0.092156        -0.045785
 C         1.404270        -0.099216         0.075847
 C         2.394847         1.052396         0.195212
 C         3.215876        -0.233809         0.229874
 C         2.323786        -0.748684        -1.012866
 O         4.535084        -0.224692         0.652668
 C         4.279763         0.131604         2.037602
 O         2.781919        -0.348334         2.389800
 C         2.326444        -0.909993         1.158197
 H        -0.483205         0.563002         0.971478
 H        -0.205419         0.795403        -0.921320
 H        -0.561138        -0.847939        -0.463986
 H         2.586088         1.573558        -0.718298
 H         2.318061         1.767014         1.063233
 H         2.428904        -0.200837        -1.997380
 H         2.043450        -1.788042        -1.278117
 H         4.964300        -0.530017         2.615057
 H         4.208517         1.127413         2.413259
 H         2.366254        -2.057564         1.197634
