19
Iteration:  4170charge 0 multiplicity 1
 C        -0.098964         0.049985         0.007793
 C         1.319510        -0.032283         0.015358
 C         2.414402         1.068397         0.143314
 C         3.233493        -0.174758         0.182718
 C         2.418977        -0.755140        -1.015819
 O         4.546733        -0.266735         0.709941
 C         4.183697         0.123342         2.058404
 O         2.930674        -0.476038         2.386399
 C         2.230953        -0.782557         1.145487
 H        -0.602090         0.647850         0.845767
 H        -0.580074         0.439303        -0.999935
 H        -0.591702        -0.926192         0.024841
 H         2.714903         1.803684        -0.670707
 H         2.149807         1.662200         1.077129
 H         2.404108        -0.351445        -2.017537
 H         2.392730        -1.833264        -1.114705
 H         4.827386        -0.261743         2.852287
 H         4.139567         1.276043         2.113192
 H         2.002896        -1.892534         1.117525
