19
Iteration:  2860charge 0 multiplicity 1
 C        -0.109095        -0.038584        -0.017815
 C         1.371178        -0.027446         0.026297
 C         2.388418         1.134635         0.058569
 C         3.216918        -0.149846         0.163901
 C         2.315573        -0.636602        -0.957513
 O         4.498244        -0.261016         0.732126
 C         4.268373        -0.047456         2.102424
 O         2.866408        -0.344057         2.353558
 C         2.315935        -0.833577         1.178905
 H        -0.496921         0.405415         0.862595
 H        -0.492503         0.483628        -0.915447
 H        -0.344346        -1.156643        -0.132259
 H         2.561746         1.763393        -0.808381
 H         2.281568         1.752714         0.942185
 H         2.352083        -0.129270        -1.946839
 H         2.398059        -1.733025        -1.101770
 H         4.898315        -0.787364         2.607525
 H         4.536458         0.950530         2.543757
 H         2.175567        -2.028964         1.136985
