19
Iteration:  4142charge 0 multiplicity 1
 C        -0.079949         0.095515        -0.119190
 C         1.325762        -0.091359         0.121773
 C         2.305741         1.143095         0.145656
 C         3.189494        -0.182384         0.175305
 C         2.342735        -0.725690        -1.022666
 O         4.561590        -0.256830         0.685482
 C         4.196769         0.068580         2.091548
 O         2.893694        -0.428016         2.374520
 C         2.425605        -0.913542         1.244315
 H        -0.593422         0.871399         0.421637
 H        -0.305655         0.305357        -1.121230
 H        -0.745503        -0.779433         0.159022
 H         2.406146         1.704709        -0.775229
 H         2.274306         1.983164         0.831834
 H         2.328942        -0.055554        -2.031992
 H         2.299728        -1.868980        -1.046620
 H         4.877319        -0.426198         2.830703
 H         4.325949         1.138254         2.198535
 H         2.292174        -2.003680         1.152525
