19
Iteration:  3519
 C        -0.145248        -0.095468         0.018245
 C         1.362251        -0.060219         0.047070
 C         2.438034         1.159342         0.203744
 C         3.278197        -0.159884         0.076379
 C         2.370803        -0.688351        -1.002672
 O         4.493458        -0.389144         0.719612
 C         4.300072         0.076723         2.071790
 O         2.787899        -0.297924         2.386358
 C         2.308489        -0.780793         1.114944
 H        -0.572402         0.031258         1.049549
 H        -0.639454         0.726618        -0.547148
 H        -0.205298        -1.010224        -0.594667
 H         2.345203         1.853895        -0.658319
 H         2.374022         1.712187         1.170935
 H         2.310273        -0.191672        -2.003784
 H         2.367852        -1.821732        -1.216093
 H         4.883542        -0.407307         2.833996
 H         4.435189         1.136991         2.180560
 H         2.161885        -1.806542         0.952403
