19
Iteration:  2421charge 0 multiplicity 1
 C        -0.120675        -0.135095         0.082849
 C         1.368369        -0.035525         0.116167
 C         2.339410         1.266225         0.066031
 C         3.228547        -0.162372         0.142979
 C         2.438505        -0.738985        -1.006883
 O         4.465748        -0.304926         0.654750
 C         4.286594        -0.214133         2.134983
 O         2.848009        -0.159355         2.370923
 C         2.305286        -0.738133         1.058541
 H        -0.421159         0.599752         0.903846
 H        -0.499509         0.360518        -0.896906
 H        -0.644596        -1.112084         0.430676
 H         2.397998         1.581199        -0.933127
 H         2.554446         1.929421         0.887242
 H         2.327778        -0.111694        -1.937380
 H         2.523475        -1.812443        -1.194945
 H         4.843623        -1.063366         2.644168
 H         4.566929         0.680459         2.668042
 H         2.090672        -1.869842         1.093854
