19
Iteration:  4159charge 0 multiplicity 1
 C        -0.150632         0.053516        -0.060006
 C         1.403686        -0.077540         0.061184
 C         2.362323         1.098245         0.097090
 C         3.252815        -0.186445         0.124879
 C         2.386293        -0.724292        -1.000010
 O         4.510115        -0.264648         0.716127
 C         4.240732         0.121024         2.047645
 O         2.888895        -0.496808         2.510737
 C         2.254375        -0.820637         1.126419
 H        -0.425770         0.876748         0.671754
 H        -0.361477         0.526530        -1.106654
 H        -0.665321        -0.861155         0.193364
 H         2.376176         1.773975        -0.816135
 H         2.294278         1.658418         1.086251
 H         2.471844        -0.082880        -1.798568
 H         2.327728        -1.786609        -1.106196
 H         5.137487        -0.177977         2.578969
 H         4.127690         1.269614         2.037830
 H         2.253005        -1.941624         1.084297
