19
Iteration:   657charge 0 multiplicity 1
 C        -0.169823         0.150040         0.057892
 C         1.374724        -0.072982         0.061081
 C         2.407027         1.072457         0.130483
 C         3.179201        -0.204683         0.142544
 C         2.326548        -0.758385        -0.930137
 O         4.532240        -0.188886         0.646574
 C         4.264805         0.096546         2.029861
 O         2.928013        -0.486887         2.365991
 C         2.281241        -0.908887         1.161084
 H        -0.404198         0.626663         0.939147
 H        -0.415832         0.766238        -0.766943
 H        -0.725566        -0.795137        -0.229703
 H         2.695677         1.705855        -0.754141
 H         2.413483         1.722521         0.960197
 H         2.229351        -0.056725        -1.914705
 H         2.286795        -1.864384        -1.028220
 H         5.054682        -0.279736         2.671975
 H         4.267747         1.183890         2.220938
 H         2.184612        -2.044578         1.082192
