19
Iteration:  2234
 C        -0.072013         0.093615         0.055753
 C         1.380195        -0.070260         0.036793
 C         2.335301         1.189582         0.006118
 C         3.174203        -0.064642         0.174398
 C         2.284183        -0.803929        -1.004320
 O         4.488540        -0.263201         0.674650
 C         4.261594        -0.055594         2.105658
 O         2.900170        -0.422336         2.392420
 C         2.348628        -0.824056         1.211921
 H        -0.408062         0.809333         0.868645
 H        -0.401588         0.463941        -0.964110
 H        -0.553557        -0.872465         0.241097
 H         2.579774         1.585233        -0.967265
 H         2.260409         1.912750         0.772831
 H         2.562810        -0.314412        -1.937959
 H         2.374039        -1.874796        -1.052338
 H         5.002155        -0.744263         2.704066
 H         4.524896         0.974144         2.369272
 H         2.205130        -1.899582         1.073576
