19
Iteration:  1586charge 0 multiplicity 1
 C        -0.045101        -0.011748         0.108744
 C         1.385818         0.060935         0.081917
 C         2.460388         1.103938         0.149159
 C         3.242163        -0.206153         0.077451
 C         2.300131        -0.666417        -1.020452
 O         4.565413        -0.424461         0.640874
 C         4.138176         0.089972         2.113039
 O         2.839904        -0.338656         2.327130
 C         2.269947        -0.802844         1.135162
 H        -0.396471         0.514739         0.968710
 H        -0.663649         0.441508        -0.653611
 H        -0.258164        -1.071740         0.436319
 H         2.541884         1.742037        -0.768824
 H         2.593030         1.660401         1.070949
 H         2.374274        -0.194408        -1.972507
 H         2.159956        -1.776601        -1.001309
 H         4.787822        -0.513683         2.802355
 H         4.139186         1.270827         2.084946
 H         2.134674        -2.028713         1.013829
