19
Iteration:  3626
 C        -0.132188        -0.096072        -0.081701
 C         1.369430        -0.008566         0.062079
 C         2.379203         1.151077         0.166894
 C         3.255122        -0.138984         0.139356
 C         2.324036        -0.685041        -0.968151
 O         4.534387        -0.235969         0.671871
 C         4.277317        -0.101656         2.200894
 O         2.891022        -0.252527         2.340887
 C         2.259457        -0.840432         1.077119
 H        -0.583324         0.568047         0.640484
 H        -0.473313        -0.069313        -1.101257
 H        -0.550863        -1.034072         0.498233
 H         2.626605         1.854686        -0.639843
 H         2.346917         1.803315         1.059288
 H         2.300198        -0.210327        -1.934414
 H         2.206505        -1.814526        -1.152593
 H         4.769866        -0.963106         2.773817
 H         4.547955         1.006123         2.521175
 H         2.131219        -2.031421         1.183855
