19
Iteration:  2726charge 0 multiplicity 1
 C        -0.162851        -0.045397         0.015041
 C         1.374075        -0.060113         0.137881
 C         2.403113         1.191236         0.057572
 C         3.228103        -0.158197         0.168745
 C         2.399844        -0.663465        -1.031273
 O         4.585981        -0.251218         0.694896
 C         4.250352        -0.083586         2.152679
 O         2.848160        -0.306521         2.339915
 C         2.263145        -0.854642         1.141960
 H        -0.841024         0.666814         0.550743
 H        -0.522774         0.294100        -1.046399
 H        -0.468222        -1.092412         0.193788
 H         2.339803         1.671619        -0.994424
 H         2.407717         1.898687         0.978627
 H         2.250465        -0.055574        -1.912615
 H         2.359039        -1.780326        -1.271779
 H         4.676686        -0.987575         2.566524
 H         4.556414         0.950621         2.585090
 H         2.146143        -1.899737         1.299629
