19
Iteration:  4383charge 0 multiplicity 1
 C        -0.077503        -0.031041         0.069422
 C         1.416244        -0.071002         0.057436
 C         2.417847         1.098605         0.112651
 C         3.274536        -0.206675         0.094296
 C         2.329862        -0.759482        -1.025441
 O         4.534914        -0.247418         0.690302
 C         4.201527         0.008945         2.164226
 O         2.796921        -0.331022         2.403496
 C         2.256819        -0.679048         1.081701
 H        -0.499951         0.200646         1.139681
 H        -0.489283         0.564914        -0.752864
 H        -0.369198        -1.069331        -0.358541
 H         2.592410         1.699207        -0.791245
 H         2.350188         1.676217         1.020140
 H         2.430845        -0.195944        -2.009126
 H         2.208876        -1.747961        -1.292358
 H         4.808419        -0.749955         2.676844
 H         4.536400         1.030479         2.320327
 H         2.202223        -1.824167         1.112354
