19
Iteration:  2957
 C        -0.176010        -0.172142         0.017162
 C         1.374411         0.007369         0.037240
 C         2.445190         1.256301         0.085873
 C         3.233456        -0.146023         0.149328
 C         2.338679        -0.686847        -0.964221
 O         4.517659        -0.209860         0.687772
 C         4.261904        -0.221923         2.109317
 O         2.822874        -0.218245         2.383461
 C         2.315424        -0.795392         1.105369
 H        -0.607610         0.306371         0.845998
 H        -0.455407         0.494731        -0.865404
 H        -0.342675        -1.283323        -0.150600
 H         2.542440         1.898476        -0.835821
 H         2.530445         1.705570         1.085210
 H         2.463662        -0.376733        -1.934648
 H         2.241590        -1.784119        -0.936354
 H         4.664188        -1.150958         2.490422
 H         4.711088         0.657247         2.621136
 H         2.198262        -1.851933         1.272948
