19
Iteration:  1487charge 0 multiplicity 1
 C        -0.110488        -0.033465        -0.048200
 C         1.370133        -0.029881         0.121559
 C         2.280805         1.177485         0.073961
 C         3.219923        -0.179056         0.157062
 C         2.283625        -0.678042        -0.963459
 O         4.593894        -0.263526         0.531497
 C         4.358558        -0.270200         2.189338
 O         2.868857        -0.210057         2.435793
 C         2.291195        -0.692428         1.176776
 H        -0.587323         0.338733         0.807747
 H        -0.435569         0.508999        -0.957934
 H        -0.624564        -1.050521         0.004094
 H         2.331992         1.736474        -0.849183
 H         2.213963         1.719604         0.942931
 H         2.505336        -0.344485        -1.919656
 H         2.163692        -1.751092        -1.127021
 H         4.665020        -1.245648         2.578900
 H         4.818406         0.658404         2.589858
 H         2.138317        -1.865655         1.183444
