19
Iteration:  2360
 C        -0.114368         0.023716        -0.040893
 C         1.344130        -0.074056         0.128857
 C         2.354974         1.150344         0.054518
 C         3.219486        -0.138468         0.127380
 C         2.280402        -0.791152        -0.927668
 O         4.571833        -0.135220         0.648009
 C         4.306004        -0.224505         2.098790
 O         2.826384        -0.260856         2.460864
 C         2.330443        -0.814032         1.148895
 H        -0.542568         0.640135         0.692102
 H        -0.297040         0.485766        -0.971540
 H        -0.594631        -0.946151        -0.033643
 H         2.229976         1.555470        -1.026925
 H         2.473077         2.059083         0.732001
 H         2.328327        -0.299193        -1.872241
 H         2.299077        -1.912800        -1.018909
 H         4.916166        -1.062561         2.342329
 H         4.784509         0.772747         2.444952
 H         2.291192        -1.880811         1.113708
