19
Iteration:  3638charge 0 multiplicity 1
 C        -0.114103        -0.127843        -0.021475
 C         1.365386         0.006686         0.078428
 C         2.342192         1.155499         0.169824
 C         3.228944        -0.149199         0.145123
 C         2.331834        -0.677675        -1.005943
 O         4.569612        -0.282847         0.705468
 C         4.259105        -0.173977         2.110885
 O         2.801024        -0.218280         2.346531
 C         2.355722        -0.712764         1.123858
 H        -0.760723         0.600697         0.460733
 H        -0.399581        -0.007723        -1.098558
 H        -0.264657        -1.277433         0.128206
 H         2.428831         1.773237        -0.746996
 H         2.329134         1.609289         1.170107
 H         2.406306        -0.163296        -1.978411
 H         2.120728        -1.776522        -0.986741
 H         4.848406        -0.929434         2.713563
 H         4.670618         0.880535         2.419083
 H         2.374781        -1.880870         1.094725
