19
Iteration:  2264charge 0 multiplicity 1
 C        -0.201587        -0.013930         0.059981
 C         1.331617         0.008942         0.079497
 C         2.391052         1.136630         0.137416
 C         3.231247        -0.163087         0.130904
 C         2.378558        -0.788633        -1.035457
 O         4.594252        -0.315379         0.637607
 C         4.218471        -0.090086         2.065818
 O         2.830018        -0.258305         2.361543
 C         2.340617        -0.722666         1.181618
 H        -0.625229         0.556911         1.015857
 H        -0.678740         0.382530        -0.851397
 H        -0.462275        -1.061566         0.255416
 H         2.618704         1.771575        -0.679014
 H         2.505792         1.721001         1.023503
 H         2.684522        -0.162159        -1.869483
 H         2.325119        -1.889468        -1.309654
 H         4.674928        -0.909483         2.669477
 H         4.542809         0.897017         2.333037
 H         2.259432        -1.879591         1.199516
