19
Iteration:  1937
 C        -0.088136         0.058953         0.029579
 C         1.418630        -0.153638         0.084764
 C         2.495196         1.186794         0.022740
 C         3.157346        -0.121641         0.051780
 C         2.171087        -0.831370        -1.053539
 O         4.561122        -0.147102         0.742610
 C         4.255183        -0.152631         2.118047
 O         2.866702        -0.327225         2.406247
 C         2.338621        -0.778362         1.170778
 H        -0.336816         0.742798         0.917914
 H        -0.453053         0.714482        -0.746538
 H        -0.781767        -0.742600         0.189502
 H         2.410022         1.749330        -0.971406
 H         2.528056         1.729324         1.056417
 H         1.947911        -0.421369        -2.061317
 H         2.080068        -1.912203        -0.914011
 H         4.829728        -0.904522         2.487975
 H         4.524456         0.728469         2.687684
 H         2.349507        -1.938636         1.095818
