19
Iteration:  3378
 C        -0.126152        -0.197780         0.046294
 C         1.376859        -0.013074         0.034526
 C         2.378996         1.120695         0.088921
 C         3.287054        -0.067177         0.065688
 C         2.324319        -0.730474        -0.943270
 O         4.524756        -0.151049         0.722496
 C         4.245345        -0.394907         2.111332
 O         2.821305        -0.121806         2.336480
 C         2.290323        -0.628413         1.118813
 H        -0.611145         0.433858         0.842127
 H        -0.571328         0.251055        -0.869776
 H        -0.211797        -1.198117        -0.060681
 H         2.299584         1.812378        -0.749915
 H         2.514282         1.627840         1.075085
 H         2.496904        -0.332378        -1.912583
 H         2.149250        -1.835398        -0.907713
 H         4.515672        -1.441226         2.427874
 H         4.824854         0.369009         2.831831
 H         2.646310        -1.719160         1.322875
