19
Iteration:  4519charge 0 multiplicity 1
 C        -0.161284        -0.177078         0.040243
 C         1.386760         0.013734         0.107245
 C         2.370272         1.180699         0.069156
 C         3.208887        -0.141159         0.136863
 C         2.443175        -0.705945        -1.042321
 O         4.604427        -0.204951         0.696023
 C         4.270788        -0.282033         2.129830
 O         2.817756        -0.195518         2.373078
 C         2.238665        -0.709232         1.138065
 H        -0.669201         0.723873         0.503051
 H        -0.378330         0.039114        -1.115178
 H        -0.609338        -1.113081         0.334636
 H         2.520020         1.855428        -0.741635
 H         2.303280         1.855357         0.889604
 H         2.239004        -0.159293        -1.913260
 H         2.249921        -1.856350        -1.234012
 H         4.562574        -1.205691         2.658012
 H         4.707721         0.598804         2.530753
 H         2.150754        -1.818476         1.249881
