19
Iteration:   759charge 0 multiplicity 1
 C        -0.133432        -0.148201         0.114759
 C         1.367382         0.001401         0.096727
 C         2.297789         1.252219        -0.034061
 C         3.272227        -0.034432         0.178425
 C         2.359357        -0.703518        -0.898433
 O         4.584618        -0.138106         0.649716
 C         4.257733        -0.485273         2.114987
 O         2.878619        -0.208210         2.297110
 C         2.279359        -0.664905         1.123970
 H        -0.458719         0.494233         0.947348
 H        -0.729889         0.010472        -0.845647
 H        -0.374579        -1.083845         0.467738
 H         2.312964         1.739720        -0.920275
 H         2.191821         1.953190         0.811110
 H         2.329123        -0.335673        -1.937864
 H         2.408797        -1.898613        -0.881711
 H         4.172886        -1.550265         2.117042
 H         4.965902         0.035566         2.728317
 H         2.283845        -1.761154         1.219023
