19
Iteration:   557charge 0 multiplicity 1
 C        -0.165363        -0.071202         0.025087
 C         1.357924        -0.040144         0.100960
 C         2.313246         1.222214        -0.009239
 C         3.213771        -0.087510         0.190668
 C         2.248198        -0.787346        -0.962780
 O         4.553259        -0.112249         0.669973
 C         4.302834        -0.456326         2.123817
 O         2.882741        -0.110702         2.380392
 C         2.408198        -0.770243         1.138360
 H        -0.622690         0.409005         0.910521
 H        -0.452822         0.496582        -0.814575
 H        -0.510233        -1.147175        -0.003183
 H         2.305457         1.678321        -1.007380
 H         2.296859         1.919895         0.855935
 H         2.382988        -0.238668        -2.003193
 H         2.407790        -1.875171        -0.904153
 H         4.597231        -1.491266         2.288580
 H         4.910925         0.271843         2.692366
 H         2.476462        -1.901202         1.113154
