19
Iteration:  2846charge 0 multiplicity 1
 C        -0.085432        -0.082494        -0.033579
 C         1.388164        -0.027685         0.099054
 C         2.349785         1.212520         0.132763
 C         3.252185        -0.123821         0.175811
 C         2.403147        -0.733345        -1.003839
 O         4.521900        -0.314639         0.648312
 C         4.252742        -0.083185         2.092424
 O         2.809050        -0.344535         2.440534
 C         2.298004        -0.711399         1.118707
 H        -0.578996         0.254972         0.908111
 H        -0.465403         0.678158        -0.863307
 H        -0.522764        -1.127034        -0.194872
 H         2.312102         1.745290        -0.869324
 H         2.397378         1.913572         1.068907
 H         2.451081        -0.259188        -1.943565
 H         2.152917        -1.820053        -1.122965
 H         4.888741        -0.702149         2.692690
 H         4.382520         1.042385         2.199259
 H         2.299523        -1.936218         0.946563
