19
Iteration:  1827
 C        -0.110034         0.022828        -0.004714
 C         1.416213        -0.020190         0.001808
 C         2.378603         1.158755         0.103339
 C         3.149053        -0.191836         0.165063
 C         2.275810        -0.764603        -1.001224
 O         4.553783        -0.300048         0.614450
 C         4.242161        -0.108303         2.045859
 O         2.895489        -0.320195         2.480978
 C         2.340563        -0.759557         1.213627
 H        -0.258448         0.436747         1.020927
 H        -0.502521         0.824991        -0.649124
 H        -0.605603        -0.924937        -0.239527
 H         2.382845         1.805755        -0.799060
 H         2.380333         1.893330         1.033819
 H         2.496637        -0.204506        -1.948579
 H         2.288817        -1.846977        -1.113266
 H         4.848646        -0.678764         2.679549
 H         4.383898         0.995826         2.274487
 H         2.005093        -1.777245         1.143937
