19
Iteration:  1913
 C        -0.163676         0.141358         0.077006
 C         1.381896         0.021606         0.124737
 C         2.354336         1.079708         0.033764
 C         3.278303        -0.219613         0.160783
 C         2.373591        -0.785321        -0.942663
 O         4.572486        -0.227611         0.649657
 C         4.225168        -0.059389         2.102461
 O         2.852896        -0.370466         2.331294
 C         2.352074        -0.816477         1.094919
 H        -0.600136         0.853318         0.783052
 H        -0.589946         0.551550        -0.825509
 H        -0.700285        -0.775273         0.387409
 H         2.278493         1.601375        -0.912503
 H         2.062339         1.640849         0.993240
 H         2.347358        -0.267750        -1.945184
 H         2.288726        -1.869428        -0.917708
 H         4.826051        -0.781260         2.493830
 H         4.500767         0.897354         2.540000
 H         2.082842        -1.973623         1.107393
