19
Iteration:  2453charge 0 multiplicity 1
 C        -0.099494        -0.080845         0.043386
 C         1.396150        -0.050432         0.013496
 C         2.395252         1.169111         0.088239
 C         3.268345        -0.183758         0.143557
 C         2.241009        -0.780366        -0.962163
 O         4.600915        -0.172573         0.654703
 C         4.269005        -0.187882         2.151523
 O         2.773527        -0.249742         2.402624
 C         2.301805        -0.707022         1.068998
 H        -0.354413         0.404710         1.025125
 H        -0.644339         0.566768        -0.736476
 H        -0.688911        -1.044031         0.035886
 H         2.551537         1.760667        -0.821910
 H         2.536714         1.758746         0.994843
 H         2.169991        -0.164450        -1.939642
 H         2.305737        -1.880668        -1.048201
 H         4.905984        -1.074196         2.423545
 H         4.649104         0.762089         2.510154
 H         2.226346        -1.821039         1.287270
