19
Iteration:  3353
 C        -0.177055        -0.143215        -0.002096
 C         1.422182        -0.052637         0.086752
 C         2.330629         1.233409         0.014547
 C         3.288768        -0.108659         0.127893
 C         2.394691        -0.744372        -0.955105
 O         4.532228        -0.160996         0.674765
 C         4.295231        -0.333418         2.110249
 O         2.826659        -0.156063         2.372640
 C         2.261370        -0.758844         1.217971
 H        -0.587692         0.159218         0.865381
 H        -0.460812         0.602251        -0.715035
 H        -0.427273        -1.139908        -0.406284
 H         2.296724         1.820295        -0.950393
 H         2.159363         1.957255         0.822969
 H         2.515673        -0.104233        -1.874808
 H         2.257184        -1.837309        -1.203054
 H         4.586105        -1.395307         2.338300
 H         4.772004         0.378557         2.743590
 H         2.272156        -1.811762         1.633769
