19
Iteration:  4730charge 0 multiplicity 1
 C        -0.103458         0.122887         0.034943
 C         1.397803        -0.109839         0.069263
 C         2.419498         1.096276         0.149301
 C         3.288336        -0.169584         0.141857
 C         2.354838        -0.793157        -1.059909
 O         4.527898        -0.180266         0.703922
 C         4.237008         0.075453         2.098487
 O         2.780688        -0.425920         2.361704
 C         2.304723        -0.899438         1.139643
 H        -0.378716         0.723007         0.890614
 H        -0.561149         0.539457        -0.909827
 H        -0.664296        -0.875810        -0.035567
 H         2.303589         1.748052        -0.669943
 H         2.293026         1.806089         1.030240
 H         2.253793        -0.287294        -1.995918
 H         2.435218        -1.845008        -0.985241
 H         5.024890        -0.496690         2.600781
 H         4.378927         1.180916         2.346206
 H         2.108346        -2.018895         1.011153
