19
Iteration:  3604
 C        -0.137914         0.029296        -0.014689
 C         1.381413        -0.095416         0.093701
 C         2.369962         1.079124         0.105342
 C         3.184576        -0.150895         0.108168
 C         2.420152        -0.713780        -1.022502
 O         4.566295        -0.155395         0.695991
 C         4.281496        -0.090808         2.042978
 O         2.780108        -0.380683         2.441551
 C         2.332637        -0.765552         1.171467
 H        -0.644921         0.813249         0.562614
 H        -0.351510         0.079849        -1.080585
 H        -0.763089        -0.905435         0.367702
 H         2.486056         1.743581        -0.768787
 H         2.320320         1.693112         1.024079
 H         2.477611        -0.175304        -1.940562
 H         2.266978        -1.822799        -1.224343
 H         4.805567        -0.812657         2.745676
 H         4.370774         1.040316         2.334317
 H         2.417099        -1.927976         1.182816
