19
Iteration:  1824charge 0 multiplicity 1
 C        -0.101869         0.037399         0.007625
 C         1.368744        -0.015988        -0.017248
 C         2.350649         1.173415         0.103128
 C         3.173853        -0.205120         0.169818
 C         2.290252        -0.773568        -0.997609
 O         4.555087        -0.295883         0.604245
 C         4.266515        -0.087355         2.079287
 O         2.910736        -0.322736         2.456127
 C         2.312984        -0.767052         1.216606
 H        -0.291853         0.449074         0.962886
 H        -0.382686         0.916929        -0.613069
 H        -0.571719        -0.960504        -0.195866
 H         2.441963         1.756963        -0.829348
 H         2.251636         1.833956         1.007423
 H         2.550994        -0.221682        -1.908027
 H         2.300567        -1.893118        -1.056706
 H         4.850416        -0.727525         2.685973
 H         4.424926         0.922758         2.390183
 H         1.955018        -1.871974         1.065184
