19
Iteration:  2025
 C        -0.205056        -0.091794         0.030248
 C         1.276124         0.031815         0.155081
 C         2.409968         1.172214         0.003792
 C         3.244610        -0.179667         0.117650
 C         2.336843        -0.757323        -0.974608
 O         4.627359        -0.144370         0.658335
 C         4.316125        -0.427839         2.081818
 O         2.827969        -0.126364         2.421757
 C         2.326045        -0.653767         1.145352
 H        -0.856414         0.325691         0.847865
 H        -0.449315         0.174348        -0.974633
 H        -0.303862        -1.142767         0.095686
 H         2.488852         1.652484        -1.037190
 H         2.475016         1.853682         0.876480
 H         2.265104        -0.200273        -1.894645
 H         2.079986        -1.825527        -1.055638
 H         4.667500        -1.490159         2.303774
 H         4.735541         0.340096         2.725808
 H         2.074721        -1.810215         1.335201
