19
Iteration:  4419
 C        -0.138658         0.093192         0.022014
 C         1.341306        -0.085382         0.060236
 C         2.362844         1.080036         0.131296
 C         3.283961        -0.197453         0.173340
 C         2.422748        -0.776387        -1.013672
 O         4.561497        -0.352562         0.760025
 C         4.267065         0.209677         2.033349
 O         2.817676        -0.430198         2.365938
 C         2.277091        -0.806379         1.087914
 H        -0.793332         0.136309         1.001557
 H        -0.400632         1.057719        -0.476119
 H        -0.619630        -0.840067        -0.355827
 H         2.500563         1.735069        -0.730532
 H         2.242636         1.807270         0.980642
 H         2.451930        -0.096827        -1.949419
 H         2.204820        -1.924219        -1.135471
 H         5.035130        -0.257240         2.703140
 H         4.164993         1.289833         2.195478
 H         2.268469        -1.951341         1.033962
