19
Iteration:  4086charge 0 multiplicity 1
 C        -0.116472        -0.110271        -0.021535
 C         1.386929        -0.072440         0.066375
 C         2.326665         1.170181         0.058374
 C         3.212987        -0.128834         0.182966
 C         2.409790        -0.678867        -0.926942
 O         4.522239        -0.224171         0.703092
 C         4.289205        -0.218188         2.169870
 O         2.833387        -0.210614         2.331858
 C         2.282197        -0.722538         1.103651
 H        -0.529415         0.344122         0.877226
 H        -0.466671         0.455620        -0.871084
 H        -0.411378        -1.214807        -0.070538
 H         2.294915         1.520955        -0.965746
 H         2.385622         1.864446         0.892084
 H         2.520972        -0.016450        -1.915282
 H         2.297496        -1.849075        -1.062246
 H         4.676035        -1.207330         2.475813
 H         4.836481         0.673941         2.435046
 H         2.123250        -1.822656         1.269028
