19
Iteration:  1678
 C        -0.223956        -0.042523        -0.047108
 C         1.372546        -0.004957         0.080609
 C         2.378595         1.109418         0.063310
 C         3.287402        -0.179259         0.117325
 C         2.307592        -0.795895        -0.885846
 O         4.637951        -0.046054         0.596290
 C         4.189948        -0.372626         2.080884
 O         2.914922        -0.158556         2.422239
 C         2.276796        -0.742446         1.208347
 H        -0.730641         0.512343         0.838649
 H        -0.321901         0.650474        -0.888529
 H        -0.693421        -0.989401        -0.062441
 H         2.584500         1.589629        -0.838906
 H         2.342132         1.641231         0.970301
 H         2.342577        -0.188062        -1.834576
 H         2.146656        -1.853366        -0.987389
 H         4.375022        -1.446040         2.085065
 H         4.775687         0.274338         2.693459
 H         2.187246        -1.910500         1.530920
