19
Iteration:   458charge 0 multiplicity 1
 C        -0.113492        -0.040465         0.076554
 C         1.363335        -0.097569         0.078740
 C         2.440620         1.175675         0.171090
 C         3.216926        -0.142471         0.116354
 C         2.326002        -0.759646        -0.977164
 O         4.474757        -0.278327         0.628588
 C         4.235361        -0.070965         2.087010
 O         2.851363        -0.261781         2.325928
 C         2.320632        -0.772419         1.106304
 H        -0.373201         0.738751         0.900863
 H        -0.466171         0.303881        -0.837341
 H        -0.525058        -1.005179         0.457078
 H         2.495589         1.857434        -0.636882
 H         2.490770         1.668182         1.185658
 H         2.545972        -0.136064        -1.865818
 H         2.348707        -1.836008        -1.201929
 H         4.797447        -0.883049         2.534771
 H         4.600931         0.911061         2.328942
 H         2.303508        -1.831133         1.164380
