19
Iteration:  4926charge 0 multiplicity 1
 C        -0.125118        -0.130490        -0.024688
 C         1.345393        -0.066894         0.093263
 C         2.289004         1.216667        -0.017225
 C         3.269865        -0.055298         0.169224
 C         2.383220        -0.682782        -1.027666
 O         4.515036        -0.212386         0.743546
 C         4.293278        -0.409931         2.174109
 O         2.913539        -0.120857         2.368310
 C         2.290146        -0.698562         1.184034
 H        -0.519068         0.156060         0.860455
 H        -0.449469         0.451778        -0.921390
 H        -0.625718        -1.096177        -0.009776
 H         2.391067         1.689766        -0.992370
 H         2.022035         1.865528         0.882999
 H         2.422867        -0.312547        -2.133043
 H         2.403274        -1.891508        -1.069407
 H         4.539750        -1.488151         2.404959
 H         4.861874         0.319410         2.587700
 H         2.065081        -1.766783         1.207066
