19
Iteration:  3921
 C        -0.108855        -0.046767         0.032155
 C         1.359765        -0.052378         0.099980
 C         2.351406         1.195088         0.183501
 C         3.285829        -0.187473         0.154268
 C         2.392964        -0.672326        -1.027621
 O         4.536731        -0.414003         0.704086
 C         4.181513         0.058035         2.084486
 O         2.857007        -0.289150         2.359048
 C         2.334829        -0.812146         1.064468
 H        -0.601034         0.406378         0.868537
 H        -0.611536         0.563007        -0.843758
 H        -0.454932        -1.155532        -0.019813
 H         2.466570         1.862967        -0.664070
 H         2.204417         1.660581         1.156437
 H         2.429801        -0.225966        -2.058400
 H         2.516128        -1.822097        -1.281766
 H         4.760792        -0.447709         2.819973
 H         4.086055         1.147021         2.056601
 H         2.252785        -1.875499         1.077982
