19
Iteration:   365
 C        -0.167489         0.100212         0.022418
 C         1.326831        -0.060397         0.075914
 C         2.331401         1.059410         0.080920
 C         3.176084        -0.173022         0.116170
 C         2.331641        -0.785753        -1.050488
 O         4.500786        -0.176198         0.664285
 C         4.331384        -0.128535         2.098592
 O         2.916215        -0.279309         2.481965
 C         2.364201        -0.791629         1.165519
 H        -0.634009         0.340672         0.924390
 H        -0.496958         0.843120        -0.834975
 H        -0.584815        -0.897524        -0.336400
 H         2.271507         1.614189        -0.985695
 H         2.480949         1.657029         0.986105
 H         2.519981        -0.164853        -1.981564
 H         2.406009        -1.979438        -1.189645
 H         5.045875        -0.955284         2.396894
 H         4.677184         0.797640         2.609197
 H         2.226169        -1.954372         1.183481
