19
Iteration:  1215
 C        -0.144297         0.127810         0.075013
 C         1.338158        -0.097206         0.175492
 C         2.293114         1.090101         0.180456
 C         3.239577        -0.142811         0.115685
 C         2.371233        -0.681595        -1.082827
 O         4.553503        -0.287621         0.684732
 C         4.249958        -0.054340         2.084983
 O         2.915830        -0.361399         2.329538
 C         2.350347        -0.880174         1.097076
 H        -0.479149         0.545552         0.946818
 H        -0.320160         0.879580        -0.693766
 H        -0.753758        -0.771241        -0.117634
 H         2.227899         1.823774        -0.638372
 H         2.127383         1.711699         1.050912
 H         2.355282        -0.056732        -1.981646
 H         2.210378        -1.777070        -1.261585
 H         5.019369        -0.645008         2.557783
 H         4.301682         1.007468         2.330427
 H         2.344161        -2.031228         1.043282
