19
Iteration:   647
 C        -0.174084         0.148009         0.032366
 C         1.290191        -0.072987         0.077783
 C         2.459142         1.062863         0.140809
 C         3.265147        -0.250805         0.136196
 C         2.254770        -0.704543        -1.041497
 O         4.512419        -0.227699         0.695614
 C         4.230686         0.128537         2.014406
 O         2.928508        -0.482419         2.419905
 C         2.382185        -0.898313         1.179295
 H        -0.457653         0.599668         0.932780
 H        -0.474306         0.860124        -0.756331
 H        -0.733021        -0.836810         0.149455
 H         2.366112         1.548332        -0.829215
 H         2.472654         1.694742         0.977645
 H         2.517549        -0.048956        -2.027042
 H         2.342140        -1.766391        -1.399942
 H         5.070895        -0.226685         2.661514
 H         4.050369         1.214225         2.004510
 H         2.210726        -1.989081         1.185005
