19
Iteration:  1332charge 0 multiplicity 1
 C        -0.208660        -0.085487        -0.065628
 C         1.387815         0.016541         0.123781
 C         2.471146         1.127929         0.227230
 C         3.182493        -0.211333         0.091545
 C         2.248160        -0.622132        -0.999601
 O         4.590936        -0.290522         0.553202
 C         4.325962        -0.172429         2.051468
 O         2.820082        -0.177195         2.440602
 C         2.326014        -0.810087         1.201381
 H        -0.648113         0.312978         0.883288
 H        -0.710226         0.500845        -0.856015
 H        -0.490754        -1.216296        -0.197794
 H         2.607049         1.794307        -0.561924
 H         2.432895         1.678533         1.148397
 H         2.320673         0.035173        -1.888384
 H         2.353422        -1.689389        -1.103286
 H         4.744755        -1.070410         2.477574
 H         4.613498         0.764116         2.610308
 H         2.320401        -1.885532         1.236047
