19
Iteration:  4443
 C        -0.077265         0.099033        -0.046588
 C         1.356868        -0.153948         0.047992
 C         2.392492         1.076577         0.206575
 C         3.229459        -0.265155         0.141844
 C         2.289145        -0.717585        -1.097490
 O         4.552575        -0.237784         0.688047
 C         4.173315         0.098032         2.066958
 O         2.864483        -0.341103         2.425118
 C         2.351159        -0.888863         1.192951
 H        -0.606664         0.381409         0.841923
 H        -0.220627         1.005761        -0.705389
 H        -0.637175        -0.755169        -0.287897
 H         2.540856         1.687764        -0.716728
 H         2.352850         1.833956         1.006115
 H         2.606199        -0.167656        -1.971691
 H         2.171300        -1.924434        -1.150703
 H         4.886381        -0.396078         2.742199
 H         4.234758         1.220363         2.181504
 H         2.331434        -1.957592         1.319536
