19
Iteration:  1563charge 0 multiplicity 1
 C        -0.154702         0.067414         0.193148
 C         1.391222        -0.075400         0.047857
 C         2.380358         1.160240         0.142877
 C         3.262637        -0.214737         0.107379
 C         2.370396        -0.733331        -1.039563
 O         4.539240        -0.381091         0.721657
 C         4.300198         0.088666         2.027381
 O         2.799184        -0.372930         2.364137
 C         2.286566        -0.794814         1.095794
 H        -0.627114         0.669714         0.882156
 H        -0.262187         0.684247        -0.694332
 H        -0.797559        -0.872893         0.120349
 H         2.598256         1.683614        -0.866321
 H         2.545465         1.764725         0.990026
 H         2.409293        -0.111646        -1.924657
 H         2.247260        -1.836782        -1.194724
 H         4.943246        -0.525511         2.737674
 H         4.221587         1.264912         2.055888
 H         2.181429        -1.990494         0.840952
