19
Iteration:  2856
 C        -0.087343        -0.059886        -0.029128
 C         1.402394        -0.018485         0.056359
 C         2.384337         1.153547         0.052391
 C         3.224134        -0.147795         0.145430
 C         2.329284        -0.649072        -0.925270
 O         4.499675        -0.281972         0.741202
 C         4.258991        -0.028869         2.048464
 O         2.850841        -0.362428         2.389612
 C         2.276208        -0.805818         1.133134
 H        -0.506498         0.347811         0.932847
 H        -0.548234         0.529988        -0.938520
 H        -0.439434        -1.118862        -0.161328
 H         2.495520         1.821668        -0.860468
 H         2.174001         1.754759         1.022341
 H         2.486635        -0.078771        -1.803621
 H         2.279078        -1.751525        -1.076382
 H         4.800254        -0.820217         2.558041
 H         4.667991         0.927598         2.460640
 H         2.438375        -1.974178         1.212926
