19
Iteration:   828charge 0 multiplicity 1
 C        -0.144114         0.068468        -0.023929
 C         1.350946        -0.105926         0.174342
 C         2.331235         1.130539         0.253058
 C         3.197554        -0.101699         0.056680
 C         2.324362        -0.822649        -1.002811
 O         4.522552        -0.152666         0.609408
 C         4.316191        -0.205524         2.077352
 O         2.875647        -0.259895         2.372327
 C         2.373517        -0.802543         1.146789
 H        -0.447212         0.585371         0.974505
 H        -0.274281         0.671019        -0.936707
 H        -0.766880        -0.872116        -0.136057
 H         2.110414         1.817255        -0.627771
 H         2.277021         1.695168         1.154916
 H         2.344704        -0.337840        -1.997445
 H         2.520231        -1.899583        -1.062978
 H         4.788236        -1.182283         2.201238
 H         4.666088         0.715993         2.647881
 H         2.329020        -1.863058         1.110862
