19
Iteration:  3711charge 0 multiplicity 1
 C        -0.072941        -0.001163         0.007546
 C         1.381721        -0.137330         0.107935
 C         2.358698         1.107353         0.054598
 C         3.294686        -0.095789         0.102101
 C         2.296837        -0.830039        -0.937806
 O         4.521166        -0.006864         0.676869
 C         4.172989        -0.279634         2.202164
 O         2.813204        -0.221366         2.332499
 C         2.403278        -0.789621         1.126719
 H        -0.676552         0.336157         0.963532
 H        -0.376957         0.937045        -0.729891
 H        -0.466849        -0.925922        -0.422026
 H         2.407032         1.583756        -0.933596
 H         2.188865         1.797984         0.896881
 H         2.509213        -0.281805        -1.844474
 H         2.324738        -1.987983        -0.877163
 H         4.460219        -1.343364         2.135176
 H         4.734969         0.461520         2.803732
 H         2.436102        -1.946418         1.114791
