19
Iteration:  3257
 C        -0.179432        -0.051401         0.065475
 C         1.428849        -0.028951        -0.022259
 C         2.360666         1.187912         0.136513
 C         3.273450        -0.132690         0.175482
 C         2.388714        -0.734078        -1.041814
 O         4.566753        -0.314119         0.746898
 C         4.276210        -0.018316         2.071826
 O         2.801784        -0.353785         2.369194
 C         2.288516        -0.776932         1.087058
 H        -0.621848         0.698578         0.816586
 H        -0.657918         0.112530        -0.943913
 H        -0.370716        -1.066107         0.326770
 H         2.437601         1.934719        -0.596276
 H         2.131000         1.713639         1.036734
 H         2.311391        -0.244979        -1.958597
 H         2.357260        -1.819427        -1.076142
 H         4.952647        -0.622866         2.696211
 H         4.330075         1.113224         2.257500
 H         2.108630        -1.830865         1.129700
