19
Iteration:  4941
 C        -0.113831        -0.121905        -0.042079
 C         1.398935        -0.034144         0.033912
 C         2.284661         1.194385         0.112630
 C         3.224367        -0.145234         0.152115
 C         2.389251        -0.745027        -0.927475
 O         4.558893        -0.235938         0.643417
 C         4.237298        -0.345122         2.097141
 O         2.834040        -0.099664         2.386569
 C         2.319191        -0.671330         1.150889
 H        -0.591684         0.237237         0.983903
 H        -0.531829         0.495998        -0.815409
 H        -0.298334        -1.177154        -0.393007
 H         2.204964         1.788807        -0.805521
 H         2.434027         1.767979         0.945891
 H         2.450775        -0.093472        -1.760709
 H         2.315796        -1.734191        -0.992671
 H         4.441675        -1.386231         2.426902
 H         4.830336         0.326264         2.870129
 H         2.492226        -1.770827         1.346449
