19
Iteration:  1400charge 0 multiplicity 1
 C        -0.157426         0.081664         0.134787
 C         1.351228        -0.013353         0.112847
 C         2.334570         1.115182        -0.009091
 C         3.241935        -0.165442         0.121819
 C         2.442366        -0.823691        -1.031413
 O         4.533580        -0.000742         0.710247
 C         4.264612        -0.357905         2.124956
 O         2.906312        -0.265150         2.313277
 C         2.236317        -0.796130         1.138903
 H        -0.433324         0.659551         1.013904
 H        -0.633152         0.633281        -0.736632
 H        -0.479773        -1.038985         0.372066
 H         2.467484         1.672510        -0.915221
 H         2.342116         1.770064         0.782131
 H         2.332658        -0.391112        -2.030262
 H         2.365327        -1.949898        -0.948106
 H         4.521812        -1.425687         2.145396
 H         4.821310         0.341961         2.793336
 H         2.011127        -1.835894         1.245122
