19
Iteration:  2497
 C        -0.209969         0.082137         0.007497
 C         1.357560        -0.179886         0.077155
 C         2.313897         1.126456         0.099319
 C         3.238057        -0.116983         0.125525
 C         2.380685        -0.761298        -0.961919
 O         4.648477        -0.207853         0.630069
 C         4.312318        -0.162599         2.136768
 O         2.869724        -0.217544         2.400280
 C         2.262588        -0.822789         1.118535
 H        -0.636603         0.453559         0.942812
 H        -0.309178         0.836803        -0.849637
 H        -0.937949        -0.759577        -0.236911
 H         2.109276         1.652107        -0.837544
 H         2.133656         1.695206         1.029020
 H         2.540459        -0.251213        -1.988285
 H         2.321688        -1.892252        -1.053634
 H         4.742166        -1.060190         2.724555
 H         4.603609         0.784027         2.555970
 H         2.202128        -1.976886         1.207041
