19
Iteration:   897charge 0 multiplicity 1
 C        -0.072277        -0.049919         0.132865
 C         1.399928        -0.035601         0.065842
 C         2.435323         1.224893         0.241181
 C         3.248194        -0.164055         0.125280
 C         2.250214        -0.648823        -1.009225
 O         4.511785        -0.362522         0.644822
 C         4.236642         0.029231         2.027709
 O         2.797271        -0.391091         2.331505
 C         2.330593        -0.807939         1.099024
 H        -0.305393         0.287770         1.143991
 H        -0.631016         0.430608        -0.687698
 H        -0.400989        -1.199419         0.028958
 H         2.606953         1.739062        -0.744856
 H         2.734267         1.939362         1.029656
 H         2.311468        -0.183578        -1.974921
 H         2.263956        -1.676293        -1.072350
 H         5.017570        -0.493562         2.663368
 H         4.227025         1.098909         1.965718
 H         2.198012        -1.812256         1.048174
