19
Iteration:  3397
 C        -0.138178        -0.151802         0.056643
 C         1.392398        -0.051799         0.078052
 C         2.337268         1.236688         0.085873
 C         3.249358        -0.138056         0.174135
 C         2.369561        -0.741047        -1.030364
 O         4.584829        -0.117048         0.675995
 C         4.230974        -0.355932         2.123240
 O         2.839611        -0.130987         2.351145
 C         2.277159        -0.751551         1.109498
 H        -0.475003         0.589857         0.736795
 H        -0.459741         0.095495        -0.935399
 H        -0.437480        -1.213020         0.408253
 H         2.579622         1.805066        -0.848541
 H         2.393164         1.981928         0.890371
 H         2.245355        -0.352152        -2.049667
 H         2.552397        -1.874594        -1.045030
 H         4.253832        -1.377235         2.479738
 H         4.726351         0.314487         2.809225
 H         2.123510        -1.891086         1.167713
