19
Iteration:  2607
 C        -0.181483        -0.033624         0.070575
 C         1.405015        -0.103526         0.092377
 C         2.391759         1.109434         0.141188
 C         3.220658        -0.175381         0.088278
 C         2.441114        -0.682474        -1.039697
 O         4.518348        -0.193265         0.637552
 C         4.187450        -0.107837         2.131832
 O         2.786916        -0.270631         2.390055
 C         2.357366        -0.778900         1.138561
 H        -0.361421         0.651575         0.844866
 H        -0.316024         0.678663        -0.771547
 H        -0.770279        -0.902411         0.060241
 H         2.607083         1.508919        -0.865316
 H         2.520779         1.821562         1.002801
 H         2.370617        -0.401712        -2.112330
 H         2.432387        -1.837047        -0.968675
 H         4.671746        -1.055399         2.470909
 H         4.773741         0.782575         2.504472
 H         2.233707        -1.900612         1.130369
