19
Iteration:  3744
 C        -0.158045        -0.002304         0.030440
 C         1.339611        -0.131993         0.011677
 C         2.334990         1.079829         0.052987
 C         3.244542        -0.101227         0.131348
 C         2.414987        -0.785303        -1.017958
 O         4.528948        -0.056386         0.712161
 C         4.258494        -0.271333         2.176153
 O         2.869968        -0.225068         2.374838
 C         2.286142        -0.717740         1.152907
 H        -0.441918         0.444761         1.071750
 H        -0.476827         0.523385        -1.042636
 H        -0.542731        -1.047963         0.077781
 H         2.504658         1.729726        -0.805152
 H         2.025930         1.726435         0.885435
 H         2.671978        -0.367428        -1.996705
 H         2.521863        -1.929149        -1.248149
 H         4.667768        -1.314498         2.379082
 H         4.895815         0.381564         2.834164
 H         2.054633        -1.816779         1.217011
