19
Iteration:  4539charge 0 multiplicity 1
 C        -0.096807        -0.099376        -0.005183
 C         1.446692        -0.060923         0.059466
 C         2.387043         1.135096         0.157344
 C         3.231692        -0.082153         0.131903
 C         2.329039        -0.741531        -0.966543
 O         4.531523        -0.164715         0.662458
 C         4.164373        -0.313132         2.176391
 O         2.816724        -0.129999         2.308736
 C         2.352737        -0.720797         1.111719
 H        -0.734875         0.559130         0.771573
 H        -0.683878         0.098220        -0.991164
 H        -0.294828        -1.138123         0.364484
 H         2.248471         1.754594        -0.696004
 H         2.551589         1.879611         0.897193
 H         2.604816        -0.409264        -1.915768
 H         2.341104        -1.831551        -0.894037
 H         4.496622        -1.404911         2.138990
 H         4.731832         0.369175         2.799439
 H         2.303912        -1.899460         1.216271
