19
Iteration:  2698
 C        -0.075195        -0.093877        -0.035591
 C         1.382573        -0.054233         0.031710
 C         2.386862         1.172643         0.200989
 C         3.257078        -0.137768         0.119183
 C         2.338503        -0.710076        -0.969415
 O         4.544134        -0.297067         0.644141
 C         4.269042        -0.078616         2.117209
 O         2.813629        -0.242542         2.358757
 C         2.283657        -0.737374         1.142307
 H        -0.602477         0.528603         0.690660
 H        -0.430684         0.377713        -0.911828
 H        -0.449219        -1.139817        -0.022352
 H         2.412164         1.959797        -0.482171
 H         2.312552         1.447746         1.204445
 H         2.235321        -0.303607        -1.995109
 H         2.173809        -1.792458        -1.021986
 H         4.602960        -1.033779         2.573109
 H         4.638558         0.796006         2.584950
 H         2.190048        -1.877199         1.267553
