19
Iteration:  3413charge 0 multiplicity 1
 C        -0.105363        -0.055857         0.048986
 C         1.375152        -0.081668         0.053588
 C         2.334570         1.081281         0.016283
 C         3.248002        -0.088039         0.137658
 C         2.439617        -0.693419        -0.970418
 O         4.526363        -0.117893         0.670478
 C         4.231923        -0.345315         2.166808
 O         2.817941        -0.186519         2.359977
 C         2.310179        -0.739310         1.162852
 H        -0.623844         0.670275         0.764448
 H        -0.555260        -0.032530        -0.964991
 H        -0.538828        -0.897755         0.548347
 H         2.225087         1.656089        -0.919913
 H         2.200911         1.759980         0.873386
 H         2.601851        -0.117630        -1.896101
 H         2.271028        -1.731978        -1.161177
 H         4.770843        -1.304052         2.191631
 H         4.793378         0.500857         2.691492
 H         2.252089        -1.901039         1.211123
