19
Iteration:   496charge 0 multiplicity 1
 C        -0.171604        -0.064758        -0.010251
 C         1.340706        -0.050796         0.118847
 C         2.289234         1.170122        -0.019970
 C         3.222597        -0.141542         0.144059
 C         2.279131        -0.768447        -0.934241
 O         4.551198        -0.102446         0.642700
 C         4.304674        -0.398867         2.092376
 O         2.969575        -0.194962         2.452714
 C         2.334572        -0.659091         1.183694
 H        -0.572932         0.525193         0.749421
 H        -0.642807         0.301369        -1.047244
 H        -0.716080        -1.031270        -0.143785
 H         2.318494         1.773894        -0.981760
 H         2.410548         1.760635         0.847847
 H         2.467499        -0.223776        -1.857345
 H         2.335369        -1.831498        -1.159518
 H         4.668201        -1.414573         2.503210
 H         4.890595         0.301378         2.778672
 H         2.234741        -1.776962         1.109099
