19
Iteration:  4470
 C        -0.116743         0.036882        -0.081936
 C         1.355139        -0.093577         0.134936
 C         2.380804         1.120906         0.181988
 C         3.248326        -0.160562         0.106830
 C         2.376622        -0.786906        -0.955258
 O         4.552082        -0.206602         0.682103
 C         4.311607        -0.022938         2.034161
 O         2.787800        -0.368874         2.365453
 C         2.256472        -0.786718         1.146810
 H        -0.526989         0.704830         0.752537
 H        -0.369812         0.493681        -1.014711
 H        -0.529380        -1.039964         0.003589
 H         2.360609         1.915115        -0.584036
 H         2.457711         1.801805         1.065471
 H         2.470603        -0.414504        -2.022120
 H         2.505362        -1.803085        -0.928057
 H         4.915272        -0.667464         2.716736
 H         4.351592         1.074590         2.334722
 H         2.092875        -1.893829         1.317337
