19
Iteration:  2005charge 0 multiplicity 1
 C        -0.087172        -0.139427         0.025841
 C         1.384595        -0.034900         0.076296
 C         2.292978         1.207825         0.033392
 C         3.279393        -0.098456         0.146536
 C         2.312344        -0.698808        -0.986839
 O         4.537383        -0.262516         0.646098
 C         4.232043        -0.391772         2.143167
 O         2.923040        -0.087274         2.340919
 C         2.263143        -0.674750         1.227901
 H        -0.363942         0.353102         1.011862
 H        -0.498589         0.515128        -0.779359
 H        -0.517183        -1.141302         0.053508
 H         2.245035         1.721345        -1.026191
 H         2.279779         1.884704         0.901239
 H         2.400640        -0.291233        -1.973163
 H         2.250834        -1.833758        -0.999847
 H         4.366577        -1.375696         2.341963
 H         4.960541         0.197017         2.686073
 H         2.298282        -1.803563         1.209467
