19
Iteration:  4641
 C        -0.165508        -0.079112        -0.054471
 C         1.375984        -0.109779         0.074500
 C         2.391940         1.077566         0.120899
 C         3.249673        -0.150463         0.210580
 C         2.335264        -0.656410        -0.988486
 O         4.552313        -0.231625         0.684257
 C         4.264272        -0.213592         2.083153
 O         2.834810        -0.156540         2.326613
 C         2.308930        -0.710828         1.201835
 H        -0.527453         0.360817         0.814548
 H        -0.513301         0.433276        -1.015971
 H        -0.619130        -1.091696        -0.256269
 H         2.419116         1.627015        -0.751037
 H         2.374223         1.572059         1.088504
 H         2.502855        -0.021644        -1.790693
 H         2.155425        -1.707884        -1.204538
 H         4.715496        -1.071752         2.582963
 H         4.622963         0.725782         2.561631
 H         2.463524        -1.844172         1.235667
