19
Iteration:  2181
 C        -0.119419         0.092332         0.010803
 C         1.417647        -0.049973         0.112054
 C         2.374798         1.059584         0.201164
 C         3.271031        -0.210442         0.096878
 C         2.358908        -0.734639        -0.952100
 O         4.472175        -0.293859         0.636233
 C         4.278458        -0.003280         2.019492
 O         2.822676        -0.267913         2.377506
 C         2.308264        -0.869895         1.169782
 H        -0.406170         0.623991         0.855700
 H        -0.480030         0.654735        -0.870846
 H        -0.643030        -0.839176        -0.133662
 H         2.392492         1.789752        -0.692074
 H         2.482037         1.578815         1.170809
 H         2.436462        -0.232974        -1.948244
 H         2.218967        -1.796190        -1.093402
 H         4.935601        -0.690474         2.584492
 H         4.366431         1.109730         2.062066
 H         2.216857        -1.965733         1.164519
