19
Iteration:  1559charge 0 multiplicity 1
 C        -0.144264         0.085423         0.140713
 C         1.346116        -0.064634         0.086397
 C         2.377619         1.105963         0.114865
 C         3.216936        -0.187661         0.117184
 C         2.391621        -0.723384        -1.035890
 O         4.520797        -0.383950         0.706768
 C         4.315071         0.113216         2.076989
 O         2.829576        -0.376728         2.335751
 C         2.291608        -0.830572         1.097740
 H        -0.511768         0.650510         1.103865
 H        -0.302844         0.734075        -0.738117
 H        -0.786207        -0.775628         0.140627
 H         2.557448         1.671384        -0.872691
 H         2.534270         1.754909         1.032624
 H         2.445291        -0.194178        -2.067261
 H         2.314445        -1.798137        -1.236282
 H         4.931906        -0.514186         2.702154
 H         4.289982         1.168370         2.230156
 H         2.297566        -1.865302         1.063295
