19
Iteration:   182
 C        -0.075846        -0.051865        -0.026221
 C         1.383197         0.036008         0.099529
 C         2.384170         1.175978         0.170742
 C         3.197942        -0.154929         0.142092
 C         2.343122        -0.666732        -0.954195
 O         4.437851        -0.428602         0.722355
 C         4.240291         0.101042         1.964872
 O         2.956590        -0.455491         2.362443
 C         2.287213        -0.733787         1.157175
 H        -0.563653        -0.082926         0.944295
 H        -0.542849         0.785602        -0.636678
 H        -0.300581        -1.054802        -0.323171
 H         2.487710         1.836014        -0.709860
 H         2.359992         1.770127         1.028468
 H         2.251053        -0.181201        -1.889773
 H         2.421141        -1.756921        -1.190222
 H         4.955153        -0.397903         2.736258
 H         4.328087         1.201925         2.063494
 H         2.087053        -1.800041         1.188820
