19
Iteration:   249charge 0 multiplicity 1
 C        -0.105179         0.092634         0.051377
 C         1.381138        -0.114642         0.041615
 C         2.254239         1.117916         0.063126
 C         3.234640        -0.141057         0.125682
 C         2.370508        -0.771825        -0.982311
 O         4.547157        -0.068743         0.636416
 C         4.269462        -0.297353         2.084212
 O         2.813530        -0.230402         2.394042
 C         2.386172        -0.834907         1.184834
 H        -0.382514         0.696509         0.995310
 H        -0.552291         0.607817        -0.793028
 H        -0.549387        -0.864606         0.252744
 H         2.385590         1.665277        -0.813763
 H         2.163181         1.726384         0.902918
 H         2.354068        -0.377536        -1.939496
 H         2.464042        -1.829066        -1.057068
 H         4.665795        -1.346920         2.389701
 H         4.723349         0.464239         2.717920
 H         2.378962        -1.902883         1.245678
