19
Iteration:  1013charge 0 multiplicity 1
 C        -0.082547        -0.185992         0.060983
 C         1.407953         0.018388         0.097844
 C         2.267883         1.291354         0.201695
 C         3.187849        -0.128756         0.133774
 C         2.298109        -0.663083        -1.020000
 O         4.531276        -0.324709         0.591898
 C         4.272596        -0.346531         2.043917
 O         2.968695        -0.133177         2.390411
 C         2.249803        -0.667037         1.140613
 H        -0.712198         0.057345         0.973950
 H        -0.458946         0.302217        -0.840520
 H        -0.254148        -1.171727        -0.217644
 H         2.403602         1.963866        -0.684407
 H         2.313888         1.672550         1.174824
 H         2.455954        -0.085937        -2.056610
 H         2.519927        -1.826732        -1.028979
 H         4.583418        -1.350026         2.294916
 H         4.780058         0.457417         2.680290
 H         2.064447        -1.848482         1.293462
