19
Iteration:  2498charge 0 multiplicity 1
 C        -0.207448         0.082681         0.010061
 C         1.366790        -0.181509         0.068971
 C         2.312615         1.124086         0.098290
 C         3.226529        -0.107216         0.119375
 C         2.378253        -0.757897        -0.969281
 O         4.652704        -0.214754         0.630496
 C         4.306630        -0.157482         2.141860
 O         2.873544        -0.218373         2.404543
 C         2.267052        -0.823265         1.121583
 H        -0.647007         0.462830         0.932632
 H        -0.332989         0.835789        -0.860737
 H        -0.963253        -0.784886        -0.252482
 H         2.136653         1.647761        -0.809380
 H         2.119046         1.684362         1.023400
 H         2.524667        -0.266202        -1.973225
 H         2.292590        -1.879170        -1.019265
 H         4.768119        -1.066797         2.697077
 H         4.596590         0.771116         2.582795
 H         2.203283        -1.971625         1.241352
