19
Iteration:  2790charge 0 multiplicity 1
 C        -0.080850         0.049605        -0.002166
 C         1.395363        -0.103108         0.114021
 C         2.389003         1.079995         0.077049
 C         3.273063        -0.184725         0.171107
 C         2.327147        -0.712646        -1.103643
 O         4.564074        -0.199523         0.682777
 C         4.202142        -0.009041         2.093016
 O         2.813470        -0.299196         2.429125
 C         2.314461        -0.899213         1.189122
 H        -0.497847         0.479357         0.986689
 H        -0.466768         0.702134        -0.906993
 H        -0.423951        -0.996209        -0.123300
 H         2.297549         1.849636        -0.758795
 H         2.292164         1.667179         1.063491
 H         2.220017        -0.064344        -1.981664
 H         2.261056        -1.764837        -1.430830
 H         4.647088        -0.848509         2.600794
 H         4.541897         0.964910         2.516713
 H         2.162284        -2.009120         0.999841
