19
Iteration:  3175
 C        -0.099774         0.061569        -0.049117
 C         1.368331        -0.076811         0.107220
 C         2.263515         1.191789         0.107974
 C         3.173565        -0.120575         0.185025
 C         2.395024        -0.793691        -0.928616
 O         4.599441        -0.201030         0.610483
 C         4.256041        -0.046237         2.109122
 O         2.821377        -0.360174         2.373535
 C         2.327593        -0.847715         1.134834
 H        -0.486920         0.324902         0.895902
 H        -0.343494         0.899182        -0.701080
 H        -0.553137        -0.898678        -0.333694
 H         2.237674         1.567440        -0.980783
 H         2.346618         1.591316         1.163831
 H         2.666546        -0.482637        -2.041178
 H         2.457962        -1.943176        -0.939477
 H         4.883442        -0.767631         2.709658
 H         4.392658         0.952558         2.530564
 H         2.366219        -2.028418         1.167643
