19
Iteration:  3017charge 0 multiplicity 1
 C        -0.169978         0.003896        -0.022686
 C         1.330265        -0.102592         0.031504
 C         2.258256         1.142723         0.086095
 C         3.258091        -0.097768         0.119930
 C         2.439850        -0.814342        -1.008270
 O         4.567073        -0.099949         0.716275
 C         4.275525        -0.284345         2.125795
 O         2.919888        -0.185170         2.398799
 C         2.246019        -0.804606         1.173430
 H        -0.668911         0.515535         0.952186
 H        -0.233124         0.671838        -0.975563
 H        -0.725047        -0.999251        -0.264125
 H         2.224491         1.850061        -0.717672
 H         2.302954         1.748835         1.011517
 H         2.455776        -0.273773        -2.011898
 H         2.520447        -1.941132        -0.958050
 H         4.611094        -1.329493         2.335024
 H         4.912189         0.393604         2.725207
 H         2.069090        -1.926693         1.208697
