19
Iteration:   698charge 0 multiplicity 1
 C        -0.172902        -0.020801        -0.003853
 C         1.297588        -0.112555         0.120833
 C         2.347689         1.148476         0.094410
 C         3.236573        -0.089162         0.190234
 C         2.302775        -0.712036        -0.995597
 O         4.539558        -0.255466         0.638421
 C         4.332508        -0.185089         2.082440
 O         2.885432        -0.245574         2.366936
 C         2.356029        -0.759816         1.168599
 H        -0.640024         0.369968         0.966765
 H        -0.396940         0.731369        -0.735578
 H        -0.601264        -1.056928        -0.214671
 H         2.454885         1.851352        -0.842755
 H         2.274725         1.838542         1.002027
 H         2.241916        -0.228065        -1.995572
 H         2.286815        -1.762406        -1.032186
 H         4.831620        -1.073320         2.462774
 H         4.865950         0.691528         2.562008
 H         2.393422        -1.918774         1.071585
