19
Iteration:  1942charge 0 multiplicity 1
 C        -0.074342         0.046127         0.038473
 C         1.371127        -0.103747         0.098537
 C         2.519209         1.165927        -0.000557
 C         3.179219        -0.160374         0.093050
 C         2.184292        -0.799497        -1.044653
 O         4.515056        -0.139814         0.753691
 C         4.270075        -0.134556         2.076851
 O         2.853282        -0.308372         2.390516
 C         2.360458        -0.810171         1.170883
 H        -0.255145         0.676521         0.903512
 H        -0.426112         0.774683        -0.749648
 H        -0.681915        -0.910304         0.088260
 H         2.395186         1.818857        -0.863588
 H         2.351779         1.725669         0.871171
 H         1.897753        -0.423530        -2.019952
 H         2.179239        -1.912952        -1.057924
 H         4.831147        -1.198185         2.485625
 H         4.677424         0.682010         2.749734
 H         2.332892        -1.850257         1.308153
