19
Iteration:  1872charge 0 multiplicity 1
 C        -0.144837         0.005740         0.028409
 C         1.397397        -0.019859         0.065810
 C         2.374310         1.152888         0.205629
 C         3.316934        -0.256921         0.074624
 C         2.296210        -0.654107        -1.010098
 O         4.571833        -0.423492         0.692601
 C         4.238793        -0.002658         1.995190
 O         2.844340        -0.256737         2.367057
 C         2.275815        -0.804786         1.181882
 H        -0.450212         0.644054         0.924883
 H        -0.617532         0.352764        -0.891943
 H        -0.313578        -1.053065         0.176217
 H         2.508533         1.958254        -0.595420
 H         2.424919         1.760228         1.194700
 H         2.257241        -0.143823        -2.000171
 H         1.977102        -1.690915        -1.158403
 H         4.872520        -0.561484         2.706231
 H         4.341815         1.095735         2.153347
 H         2.202468        -1.876819         1.250762
