19
Iteration:  1940
 C        -0.077220         0.045154         0.030525
 C         1.391697        -0.125928         0.094154
 C         2.517130         1.173378         0.009432
 C         3.163692        -0.142606         0.075616
 C         2.177136        -0.809898        -1.054504
 O         4.533535        -0.143787         0.753911
 C         4.260409        -0.135603         2.087821
 O         2.860191        -0.317280         2.398335
 C         2.353359        -0.800054         1.173077
 H        -0.284010         0.729967         0.919566
 H        -0.449029         0.775450        -0.738735
 H        -0.729485        -0.837177         0.135252
 H         2.386863         1.825721        -0.950833
 H         2.412139         1.728243         0.966719
 H         1.901237        -0.439958        -2.015398
 H         2.134390        -1.927285        -0.993439
 H         4.850301        -1.106564         2.486626
 H         4.614656         0.680801         2.740179
 H         2.346205        -1.850957         1.233960
