19
Iteration:  4345
 C        -0.143336        -0.055855        -0.001583
 C         1.349792        -0.094374         0.099251
 C         2.333499         1.109895         0.102930
 C         3.278878        -0.119176         0.167146
 C         2.385882        -0.741121        -1.006445
 O         4.537910        -0.179467         0.655090
 C         4.234309        -0.271187         2.160689
 O         2.825966        -0.155046         2.353014
 C         2.354335        -0.725680         1.114999
 H        -0.618478         0.737622         0.521778
 H        -0.416441         0.158163        -1.065204
 H        -0.655926        -0.963170         0.334803
 H         2.358089         1.629857        -0.891680
 H         2.261348         1.695614         1.074011
 H         2.546393        -0.198730        -1.916089
 H         2.469200        -1.877791        -0.948687
 H         4.647439        -1.240359         2.552563
 H         4.678694         0.647335         2.652087
 H         2.301488        -1.804414         1.126488
