19
Iteration:  2175
 C        -0.098798         0.075621         0.022414
 C         1.414976        -0.123182         0.067281
 C         2.383754         1.080845         0.175084
 C         3.252093        -0.155195         0.137492
 C         2.305794        -0.694803        -1.000281
 O         4.511059        -0.367171         0.591231
 C         4.282112         0.012070         2.040839
 O         2.797890        -0.266981         2.447123
 C         2.343606        -0.818172         1.139226
 H        -0.538204         0.612327         0.960615
 H        -0.444162         0.696719        -0.823866
 H        -0.619857        -0.925959        -0.116346
 H         2.367363         1.766768        -0.648106
 H         2.385560         1.573737         1.172266
 H         2.513290        -0.245356        -1.975893
 H         2.322281        -1.815426        -1.105204
 H         4.930936        -0.613555         2.636092
 H         4.416904         1.096114         2.193780
 H         2.035018        -1.878100         1.321130
