19
Iteration:   558charge 0 multiplicity 1
 C        -0.160244        -0.071742         0.033526
 C         1.352577        -0.036933         0.094792
 C         2.311041         1.220577        -0.010852
 C         3.212518        -0.095795         0.197085
 C         2.248605        -0.780601        -0.964816
 O         4.555466        -0.115077         0.673085
 C         4.304640        -0.452980         2.116724
 O         2.879809        -0.112481         2.377429
 C         2.409155        -0.774432         1.139738
 H        -0.600519         0.421427         0.901515
 H        -0.482718         0.513080        -0.854383
 H        -0.529664        -1.181667        -0.010574
 H         2.315385         1.697352        -1.008897
 H         2.295213         1.904325         0.822554
 H         2.383838        -0.208369        -2.002917
 H         2.381420        -1.854542        -0.896897
 H         4.642718        -1.489864         2.341015
 H         4.907048         0.290531         2.707891
 H         2.496890        -1.880895         1.134480
