19
Iteration:    47
 C        -0.203996        -0.209046        -0.011742
 C         1.328073        -0.022970         0.183999
 C         2.324646         1.235097         0.121172
 C         3.296274        -0.023207         0.132442
 C         2.379139        -0.743539        -0.905731
 O         4.565292        -0.186037         0.663431
 C         4.232811        -0.487043         2.077537
 O         2.945184        -0.071972         2.306876
 C         2.299901        -0.633520         1.123206
 H        -0.721084         0.210795         0.753563
 H        -0.477752         0.433200        -1.014712
 H        -0.526217        -1.292811        -0.114108
 H         2.318422         1.883129        -0.748273
 H         2.297400         2.026571         0.937125
 H         2.250110        -0.579350        -2.039814
 H         2.252864        -1.820347        -0.800776
 H         4.372713        -1.631734         2.016636
 H         4.975137        -0.136748         2.799288
 H         2.129862        -1.681070         1.251390
