19
Iteration:  4761
 C        -0.125391         0.085614         0.013457
 C         1.391568        -0.113988         0.042516
 C         2.318212         1.124577         0.179938
 C         3.296896        -0.182586         0.156361
 C         2.436376        -0.712359        -0.988814
 O         4.507340        -0.324032         0.688788
 C         4.196278         0.068701         2.081234
 O         2.855639        -0.335869         2.334881
 C         2.316951        -0.849645         1.128527
 H        -0.491707         0.230605         1.019151
 H        -0.436825         1.020806        -0.678453
 H        -0.678428        -0.872617        -0.282560
 H         2.197521         1.665414        -0.721139
 H         2.104196         1.609352         1.158770
 H         2.401997        -0.241818        -1.954058
 H         2.498492        -1.837548        -1.143245
 H         5.005747        -0.563838         2.660744
 H         4.336180         1.177630         2.175173
 H         2.201671        -2.025944         1.241826
