19
Iteration:  3184charge 0 multiplicity 1
 C        -0.176654         0.081969        -0.016380
 C         1.380070        -0.078492         0.055142
 C         2.322646         1.093953         0.104164
 C         3.222718        -0.112248         0.111968
 C         2.378063        -0.798628        -0.958657
 O         4.538612        -0.198841         0.670566
 C         4.259518        -0.048748         2.140851
 O         2.875455        -0.340257         2.373243
 C         2.311575        -0.867120         1.133909
 H        -0.563391         0.353089         0.972016
 H        -0.361467         0.747082        -0.885481
 H        -0.518060        -0.877232        -0.326865
 H         2.320880         1.946793        -0.555077
 H         2.212937         1.629218         1.057507
 H         2.552560        -0.249020        -1.878756
 H         2.504900        -1.922644        -0.918268
 H         4.896262        -0.642872         2.759106
 H         4.393497         1.011979         2.314913
 H         2.474072        -1.968901         1.120552
