19
Iteration:  2274
 C        -0.137673        -0.064287         0.098883
 C         1.394510        -0.027456         0.014137
 C         2.469472         1.153856         0.156614
 C         3.227238        -0.185850         0.111675
 C         2.300436        -0.677622        -1.030070
 O         4.503193        -0.319244         0.629021
 C         4.281774        -0.121878         2.125197
 O         2.799701        -0.154304         2.348729
 C         2.330029        -0.836767         1.164246
 H        -0.612385         0.550409         0.900597
 H        -0.456438         0.385202        -0.828047
 H        -0.532384        -1.068470         0.031593
 H         2.573600         1.822849        -0.687060
 H         2.337650         1.654830         1.118075
 H         2.324317        -0.278656        -2.034607
 H         2.346569        -1.815958        -1.065133
 H         4.840644        -0.853800         2.679677
 H         4.481949         0.885858         2.396603
 H         2.373243        -1.929553         1.366153
