19
Iteration:  1877
 C        -0.140019         0.026481         0.058769
 C         1.439103        -0.030185         0.048560
 C         2.388551         1.118275         0.193020
 C         3.268618        -0.241325         0.078050
 C         2.299776        -0.661134        -1.031693
 O         4.543891        -0.434081         0.653533
 C         4.283700         0.033875         2.021028
 O         2.808994        -0.260039         2.441661
 C         2.292542        -0.775693         1.150212
 H        -0.405329         0.661750         0.863791
 H        -0.582977         0.293459        -0.927024
 H        -0.433712        -1.046515         0.183244
 H         2.493097         1.915014        -0.505857
 H         2.241740         1.594800         1.114976
 H         2.297402        -0.136862        -1.976446
 H         2.132479        -1.746335        -1.230509
 H         4.973279        -0.637275         2.669487
 H         4.376396         1.111203         2.223260
 H         2.190229        -1.899579         1.061214
