19
Iteration:  4530charge 0 multiplicity 1
 C        -0.130819        -0.120954         0.012929
 C         1.345373         0.005744         0.120787
 C         2.372714         1.210225         0.106578
 C         3.302428        -0.176821         0.113316
 C         2.396682        -0.727911        -0.979394
 O         4.513530        -0.174979         0.640989
 C         4.199369        -0.303337         2.179830
 O         2.808267        -0.142181         2.345800
 C         2.338694        -0.734621         1.105090
 H        -0.707545         0.569818         0.682720
 H        -0.518161        -0.075135        -1.108795
 H        -0.341071        -1.129725         0.367786
 H         2.465130         1.777760        -0.793289
 H         2.485480         1.644730         1.053967
 H         2.510718        -0.242090        -1.921572
 H         2.418009        -1.906301        -1.062939
 H         4.610660        -1.317990         2.420691
 H         4.726738         0.447535         2.722972
 H         2.219418        -1.853614         1.152893
