19
Iteration:  1828charge 0 multiplicity 1
 C        -0.111726         0.019669        -0.008096
 C         1.428035        -0.021331         0.009628
 C         2.387737         1.156010         0.104446
 C         3.145903        -0.187066         0.162326
 C         2.273977        -0.759849        -1.002538
 O         4.551550        -0.301663         0.619344
 C         4.234746        -0.109996         2.033547
 O         2.888434        -0.320583         2.486586
 C         2.346414        -0.757669         1.212147
 H        -0.264815         0.422502         1.045071
 H        -0.542919         0.787427        -0.669305
 H        -0.615817        -0.907273        -0.248176
 H         2.370757         1.815230        -0.787029
 H         2.422309         1.879982         1.015667
 H         2.469658        -0.208899        -1.954204
 H         2.277835        -1.830552        -1.130531
 H         4.884475        -0.695414         2.697289
 H         4.379184         1.013953         2.230363
 H         2.034946        -1.752820         1.183882
