19
Iteration:  2116charge 0 multiplicity 1
 C        -0.094216        -0.043039         0.046668
 C         1.437061        -0.020894         0.082018
 C         2.440309         1.199876         0.092251
 C         3.279628        -0.204717         0.095141
 C         2.301485        -0.772630        -0.957037
 O         4.554688        -0.226216         0.643687
 C         4.182207        -0.190328         1.999598
 O         2.791199        -0.243583         2.399701
 C         2.323968        -0.755996         1.194427
 H        -0.257798         0.347001         1.014748
 H        -0.641494         0.563559        -0.737354
 H        -0.559201        -1.070057         0.074102
 H         2.496565         2.015124        -0.804290
 H         2.616856         1.607476         1.124163
 H         2.192420        -0.180146        -1.900893
 H         2.027009        -1.829969        -1.014906
 H         4.795802        -0.951484         2.537606
 H         4.390688         0.909894         2.210881
 H         1.878006        -1.787845         1.375951
