19
Iteration:  1958charge 0 multiplicity 1
 C        -0.124295         0.053800         0.088507
 C         1.413002        -0.029457         0.090841
 C         2.352989         1.078725         0.040077
 C         3.238987        -0.214940         0.139982
 C         2.292705        -0.766736        -0.975495
 O         4.545978        -0.120183         0.645365
 C         4.282342        -0.260581         2.137929
 O         2.842113        -0.204594         2.352578
 C         2.299574        -0.781785         1.140994
 H        -0.699898         0.417905         0.973287
 H        -0.497355         0.629116        -0.747697
 H        -0.509141        -0.948233        -0.057979
 H         2.544755         1.452564        -0.970370
 H         2.556346         1.774705         0.896350
 H         2.509734        -0.171625        -1.888472
 H         2.123854        -1.844340        -1.090095
 H         4.764844        -1.114382         2.515368
 H         4.710625         0.645333         2.557481
 H         2.137138        -1.931694         1.105469
