19
Iteration:  2308charge 0 multiplicity 1
 C        -0.203417        -0.019556         0.044402
 C         1.363529        -0.063760         0.107781
 C         2.399862         1.179384         0.064196
 C         3.236529        -0.226917         0.145113
 C         2.354797        -0.686408        -1.029155
 O         4.577432        -0.285429         0.623032
 C         4.266677        -0.160613         2.160885
 O         2.823598        -0.175086         2.373097
 C         2.354236        -0.786634         1.181443
 H        -0.825129         0.288104         0.982307
 H        -0.454042         0.588279        -0.825661
 H        -0.528652        -1.020344        -0.178388
 H         2.409453         1.821528        -0.791843
 H         2.295132         1.702810         0.973100
 H         2.282073        -0.284565        -2.048685
 H         2.299704        -1.825051        -0.991346
 H         4.923927        -0.945381         2.505809
 H         4.640420         0.769511         2.443105
 H         2.191162        -1.895452         1.112769
