19
Iteration:  2701charge 0 multiplicity 1
 C        -0.095388        -0.121809        -0.052383
 C         1.395074        -0.047157         0.059963
 C         2.395622         1.137078         0.201456
 C         3.242397        -0.147145         0.124150
 C         2.315913        -0.686445        -0.964915
 O         4.528316        -0.286318         0.659053
 C         4.275879        -0.109713         2.114831
 O         2.794063        -0.236481         2.356012
 C         2.337846        -0.717845         1.113936
 H        -0.612159         0.641101         0.694742
 H        -0.507117         0.453511        -0.931704
 H        -0.533724        -1.143311         0.033460
 H         2.505211         1.940312        -0.591443
 H         2.388613         1.423373         1.271852
 H         2.364768        -0.307902        -2.034594
 H         2.187651        -1.740078        -0.936510
 H         4.679827        -1.000819         2.570963
 H         4.597992         0.890799         2.490742
 H         2.277860        -1.820498         1.238088
