19
Iteration:  1262
 C        -0.116465         0.135338         0.142497
 C         1.341611        -0.043336         0.109961
 C         2.395440         1.078483         0.120064
 C         3.245283        -0.202345         0.127530
 C         2.333707        -0.724859        -1.056129
 O         4.504164        -0.151930         0.686212
 C         4.225949        -0.040657         2.079369
 O         2.891535        -0.491522         2.327315
 C         2.321563        -0.836785         1.081401
 H        -0.439295         0.860396         0.941286
 H        -0.523106         0.552780        -0.791544
 H        -0.548853        -0.794880         0.254091
 H         2.431921         1.830396        -0.776633
 H         2.535464         1.836722         0.933154
 H         2.272775        -0.178485        -1.964394
 H         2.525368        -1.769182        -1.110666
 H         4.847419        -0.784553         2.639698
 H         4.378992         1.001613         2.354774
 H         2.137361        -2.004708         1.259037
