19
Iteration:  2332
 C        -0.135010         0.025302         0.012982
 C         1.313919        -0.040796        -0.047753
 C         2.334172         1.144193         0.053158
 C         3.187632        -0.135258         0.153437
 C         2.370205        -0.837156        -0.921596
 O         4.524598        -0.186272         0.697489
 C         4.287736        -0.222883         2.086057
 O         2.938679        -0.291120         2.402254
 C         2.280581        -0.680977         1.186476
 H        -0.566134         0.376349         1.052990
 H        -0.482521         0.715538        -0.832563
 H        -0.579870        -0.985993        -0.117889
 H         2.309288         1.738944        -0.832198
 H         2.267525         1.709892         0.936118
 H         2.584583        -0.320800        -1.897578
 H         2.488208        -1.923728        -0.973873
 H         5.078366        -0.956855         2.410459
 H         4.650633         0.720905         2.392796
 H         2.080461        -1.808637         1.208307
