19
Iteration:   204
 C        -0.137179         0.000049        -0.046240
 C         1.367493        -0.014227         0.157146
 C         2.368268         1.182478         0.188530
 C         3.240887        -0.163714         0.147146
 C         2.313526        -0.721118        -0.953465
 O         4.609383        -0.318535         0.569949
 C         4.254236         0.026215         2.022771
 O         2.812802        -0.376293         2.432384
 C         2.347640        -0.849506         1.158332
 H        -0.750295         0.133022         0.848630
 H        -0.272678         0.951189        -0.647034
 H        -0.527846        -0.871420        -0.529339
 H         2.308101         1.764467        -0.741355
 H         2.361076         1.852633         0.986851
 H         2.300644        -0.319329        -1.932908
 H         2.155899        -1.821103        -1.109621
 H         4.892554        -0.617785         2.735905
 H         4.356809         1.089236         2.251664
 H         2.280629        -1.919440         1.225197
