19
Iteration:  2222charge 0 multiplicity 1
 C        -0.109439         0.121983        -0.032521
 C         1.371609        -0.076359         0.048912
 C         2.380765         1.114394         0.015713
 C         3.226430        -0.205159         0.140462
 C         2.289144        -0.772808        -0.926015
 O         4.536005        -0.189471         0.683805
 C         4.231565        -0.044215         2.047777
 O         2.888502        -0.433899         2.481848
 C         2.372233        -0.771333         1.136859
 H        -0.274675         0.858707         0.887269
 H        -0.646182         0.593273        -0.906009
 H        -0.638787        -0.802304         0.233616
 H         2.292790         1.700523        -0.850074
 H         2.340883         1.693081         0.876114
 H         2.083392        -0.268388        -1.860634
 H         2.019991        -1.824789        -1.042189
 H         4.957602        -0.836684         2.576653
 H         4.247813         0.967416         2.402391
 H         2.596567        -1.857423         1.074434
