19
Iteration:  1470
 C        -0.152841        -0.126044         0.022189
 C         1.357955        -0.030986         0.047023
 C         2.375698         1.198376         0.100105
 C         3.210128        -0.029220         0.142437
 C         2.407014        -0.706793        -0.985889
 O         4.493992        -0.318039         0.681537
 C         4.307392        -0.351385         2.025295
 O         2.880593        -0.132102         2.398978
 C         2.286370        -0.702425         1.206441
 H        -0.654852         0.530481         0.860219
 H        -0.567143         0.310911        -0.913515
 H        -0.463912        -1.153933         0.195837
 H         2.400860         1.785061        -0.856409
 H         2.395839         1.940671         1.014468
 H         2.162363        -0.112034        -1.953027
 H         2.431817        -1.844112        -1.100007
 H         4.711403        -1.380634         2.274575
 H         4.790431         0.512807         2.453854
 H         2.214602        -1.745439         1.260629
