19
Iteration:  2768charge 0 multiplicity 1
 C        -0.159334         0.020266         0.045960
 C         1.304530        -0.052577         0.047771
 C         2.362575         1.126877         0.103502
 C         3.279105        -0.149932         0.108031
 C         2.397130        -0.746642        -0.974255
 O         4.536534        -0.183288         0.691844
 C         4.271850        -0.060067         2.163681
 O         2.804386        -0.365106         2.298889
 C         2.356925        -0.847755         1.136411
 H        -0.413825         0.773890         0.900877
 H        -0.431653         0.654400        -0.905903
 H        -0.713158        -0.927252         0.108627
 H         2.629032         1.891407        -0.711592
 H         2.320735         1.730845         1.083434
 H         2.519113        -0.591795        -2.046594
 H         2.499957        -1.843035        -0.882096
 H         4.790041        -0.807462         2.728054
 H         4.367251         0.988974         2.567609
 H         2.137277        -1.927087         0.943522
