19
Iteration:  2991charge 0 multiplicity 1
 C        -0.162085        -0.120755        -0.025394
 C         1.367392        -0.080192         0.018119
 C         2.339335         1.179842         0.081160
 C         3.261980        -0.108608         0.156654
 C         2.359631        -0.680942        -0.955121
 O         4.556468        -0.195631         0.663879
 C         4.267221        -0.297102         2.130757
 O         2.845171        -0.140752         2.388164
 C         2.320217        -0.799291         1.191963
 H        -0.624856         0.225350         0.917984
 H        -0.371216         0.658865        -0.815318
 H        -0.717319        -1.075656        -0.360692
 H         2.437715         1.792427        -0.833750
 H         2.311661         1.835843         0.924052
 H         2.433272        -0.161204        -1.904956
 H         2.354434        -1.724282        -1.011528
 H         4.548375        -1.259136         2.505211
 H         4.887777         0.486754         2.547417
 H         2.185256        -1.851350         1.237103
