19
Iteration:  1709
 C        -0.028323        -0.128022         0.118932
 C         1.386289         0.027371         0.042016
 C         2.275220         1.247280        -0.040650
 C         3.233580        -0.073325         0.133094
 C         2.354141        -0.785648        -0.959921
 O         4.484717        -0.229256         0.726001
 C         4.354785        -0.480273         2.071158
 O         2.806440        -0.120253         2.364334
 C         2.285039        -0.655768         1.161406
 H        -0.458107         0.644635         0.804024
 H        -0.320283         0.378120        -0.801868
 H        -0.366116        -1.101683         0.107527
 H         2.413160         1.736347        -0.941509
 H         2.069416         1.914453         0.824462
 H         2.397616        -0.261406        -1.920529
 H         2.216797        -1.814600        -0.929431
 H         4.656411        -1.511911         2.429199
 H         5.090227         0.241820         2.566468
 H         2.224207        -1.788852         1.318536
