19
Iteration:  3127
 C        -0.212449        -0.131856        -0.019565
 C         1.423034        -0.003981         0.021168
 C         2.345841         1.204802         0.150177
 C         3.318054        -0.209173         0.127432
 C         2.317987        -0.681663        -0.992873
 O         4.603950        -0.202216         0.703650
 C         4.277945        -0.202035         2.130643
 O         2.802435        -0.192672         2.355634
 C         2.318002        -0.800052         1.140448
 H        -0.685088         0.395709         0.922171
 H        -0.609663         0.556116        -0.841467
 H        -0.524650        -1.182174        -0.094003
 H         2.516552         1.565496        -0.772733
 H         2.141408         1.742731         1.043325
 H         2.372213        -0.316633        -1.982145
 H         2.106715        -1.761800        -1.151641
 H         4.730001        -1.019780         2.629007
 H         4.659815         0.747584         2.493731
 H         2.248688        -1.861066         1.329418
