19
Iteration:  1817charge 0 multiplicity 1
 C        -0.103019         0.091387         0.028742
 C         1.314386        -0.011844        -0.022745
 C         2.298704         1.163946         0.078043
 C         3.236666        -0.217595         0.178150
 C         2.347806        -0.779586        -0.965561
 O         4.536956        -0.282011         0.615753
 C         4.332371        -0.061726         2.137735
 O         2.913775        -0.339591         2.384533
 C         2.240755        -0.797538         1.187180
 H        -0.507291         0.398557         1.044171
 H        -0.347597         0.869486        -0.704291
 H        -0.589477        -0.865453        -0.154302
 H         2.572422         1.706105        -0.838878
 H         2.059172         1.742920         1.047197
 H         2.541638        -0.323581        -1.973919
 H         2.246572        -1.859360        -0.995363
 H         4.958699        -0.848454         2.595778
 H         4.630636         0.985338         2.504289
 H         2.126091        -1.854982         1.223515
