19
Iteration:   276charge 0 multiplicity 1
 C        -0.176155        -0.108391         0.125211
 C         1.346995         0.011366         0.085258
 C         2.307216         1.293152        -0.031901
 C         3.254553        -0.086243         0.107530
 C         2.392928        -0.797159        -0.964973
 O         4.523313        -0.083264         0.714033
 C         4.253589        -0.473794         2.125739
 O         2.877426        -0.212655         2.333971
 C         2.369343        -0.712415         1.122858
 H        -0.631796         0.684075         0.678573
 H        -0.561366         0.083726        -0.904438
 H        -0.543280        -1.061925         0.608594
 H         2.450196         1.742210        -1.078461
 H         2.403680         2.059972         0.822240
 H         2.444062        -0.443315        -2.066933
 H         2.447205        -1.921771        -0.802890
 H         4.434732        -1.516476         2.250610
 H         4.845693         0.109440         2.864922
 H         2.232450        -1.850556         1.236049
