19
Iteration:  3231charge 0 multiplicity 1
 C        -0.157111        -0.059172         0.036362
 C         1.462565        -0.016460         0.125070
 C         2.414051         1.117224         0.176121
 C         3.270665        -0.184735         0.132346
 C         2.375481        -0.675206        -1.012801
 O         4.503243        -0.333843         0.704466
 C         4.154153         0.043374         2.044107
 O         2.792791        -0.334980         2.354392
 C         2.355275        -0.786047         1.052844
 H        -0.535214         0.541426         0.768455
 H        -0.400777         0.119367        -0.971266
 H        -0.432720        -1.109652         0.298608
 H         2.602880         1.801761        -0.744457
 H         2.430931         1.819574         1.079009
 H         2.330793         0.055464        -1.928343
 H         2.298880        -1.771540        -1.083454
 H         4.848423        -0.581115         2.675536
 H         4.234931         1.099793         2.267338
 H         2.296790        -1.893781         1.261272
