19
Iteration:  1242charge 0 multiplicity 1
 C        -0.061439         0.155504         0.091856
 C         1.361992        -0.069084         0.131973
 C         2.432941         1.072342         0.207379
 C         3.238486        -0.216657         0.129345
 C         2.327884        -0.805047        -1.032782
 O         4.566622        -0.059924         0.562948
 C         4.252748        -0.016457         2.073618
 O         2.751464        -0.458073         2.353511
 C         2.305414        -0.936337         1.110450
 H        -0.087183         0.916204         1.015188
 H        -0.366137         0.848576        -0.707908
 H        -0.800163        -0.646369         0.163478
 H         2.363791         1.962367        -0.452150
 H         2.295443         1.540337         1.231257
 H         2.478190        -0.332666        -2.015549
 H         2.033174        -1.815512        -1.119803
 H         5.076889        -0.705162         2.404490
 H         4.320168         1.013448         2.508688
 H         2.213936        -2.058873         0.975124
