19
Iteration:    61
 C        -0.056172        -0.162569        -0.002510
 C         1.372801        -0.008515         0.076872
 C         2.341250         1.253142         0.052129
 C         3.240333        -0.014225         0.132671
 C         2.236314        -0.777593        -0.840508
 O         4.582850        -0.063304         0.588996
 C         4.218968        -0.563064         2.103241
 O         2.894022        -0.133832         2.384176
 C         2.317217        -0.669981         1.171463
 H        -0.677175         0.287217         0.854163
 H        -0.428142         0.352150        -1.047112
 H        -0.384286        -1.227001        -0.068398
 H         2.351011         1.648096        -0.982883
 H         2.367449         1.807581         0.981677
 H         2.178529        -0.396252        -1.869088
 H         2.387044        -1.880204        -0.701391
 H         4.255184        -1.752319         2.170887
 H         4.865293         0.092374         2.749205
 H         2.324765        -1.788251         1.235770
