19
Iteration:  4837charge 0 multiplicity 1
 C        -0.114642        -0.023148        -0.022860
 C         1.369283        -0.108344         0.057415
 C         2.286221         1.149442         0.064195
 C         3.225804        -0.081614         0.186516
 C         2.401360        -0.706901        -0.998427
 O         4.580393        -0.236302         0.640226
 C         4.263711        -0.209352         2.172242
 O         2.842615        -0.221669         2.414462
 C         2.283452        -0.772711         1.129382
 H        -0.468830         0.586724         0.763617
 H        -0.583564         0.426271        -0.969421
 H        -0.454820        -0.999180         0.295127
 H         2.303615         1.716776        -0.858230
 H         2.124369         1.694141         1.067901
 H         2.489105        -0.226852        -1.972143
 H         2.342791        -1.815323        -1.344247
 H         4.806932        -1.140045         2.674262
 H         4.662812         0.694937         2.441743
 H         2.342238        -1.919899         1.180212
