19
Iteration:  2598
 C        -0.165257         0.007321         0.087276
 C         1.394596        -0.073647         0.064794
 C         2.302969         1.125313         0.080097
 C         3.303181        -0.171560         0.135652
 C         2.428837        -0.712298        -1.034761
 O         4.553682        -0.246578         0.643479
 C         4.255663        -0.120313         2.128552
 O         2.800554        -0.237078         2.395963
 C         2.310934        -0.804171         1.110309
 H        -0.629723         0.625286         0.844741
 H        -0.583671         0.391314        -0.862420
 H        -0.780027        -0.922488         0.099831
 H         2.311908         1.796610        -0.738151
 H         2.446695         1.653070         1.003380
 H         2.615663        -0.125064        -1.934113
 H         2.278535        -1.811329        -1.202392
 H         4.702067        -0.996322         2.601928
 H         4.486144         0.705025         2.692374
 H         2.429642        -1.929849         1.212816
