19
Iteration:    13
 C        -0.099231        -0.105269         0.035096
 C         1.384205        -0.111057        -0.000110
 C         2.332096         1.165408         0.096731
 C         3.225671        -0.148114         0.160084
 C         2.362557        -0.632219        -1.027895
 O         4.492623        -0.244838         0.617358
 C         4.294334        -0.261713         2.120741
 O         2.937328        -0.150797         2.434893
 C         2.240936        -0.734386         1.194172
 H        -0.385778         0.402003         0.897945
 H        -0.566590         0.516779        -0.876584
 H        -0.603083        -1.119376         0.077854
 H         2.470970         1.650228        -0.847289
 H         2.126010         1.763089         0.993142
 H         2.393991         0.019334        -1.942794
 H         2.185666        -1.678300        -1.177714
 H         4.606942        -1.358795         2.275003
 H         4.875372         0.482165         2.633164
 H         2.048510        -1.758674         1.399707
