19
Iteration:  2477
 C        -0.104935         0.083599         0.038907
 C         1.404580        -0.044444         0.151324
 C         2.317418         1.073178         0.097747
 C         3.157747        -0.200451         0.103852
 C         2.451002        -0.796337        -1.010029
 O         4.484878        -0.154939         0.683274
 C         4.263071        -0.149909         2.075525
 O         2.838274        -0.237579         2.324808
 C         2.361917        -0.809178         1.175923
 H        -0.632463         0.376676         0.953427
 H        -0.486944         0.787689        -0.796625
 H        -0.630191        -0.948060        -0.242737
 H         2.505480         1.569292        -0.794893
 H         2.379391         1.697622         0.998376
 H         2.344124        -0.225329        -1.926135
 H         2.374811        -1.884500        -1.064440
 H         4.848048        -1.092477         2.318195
 H         4.578349         0.685729         2.671071
 H         2.253175        -1.904701         1.368723
