19
Iteration:  4188charge 0 multiplicity 1
 C        -0.153111        -0.018395         0.005239
 C         1.443802         0.017676         0.044002
 C         2.416661         1.189044         0.160026
 C         3.278859        -0.263499         0.091652
 C         2.368242        -0.788394        -0.979600
 O         4.533394        -0.260288         0.731965
 C         4.185240         0.084787         2.083774
 O         2.791526        -0.380304         2.357117
 C         2.311292        -0.866110         1.095149
 H        -0.467963         0.441226         1.004705
 H        -0.621024         0.633157        -0.690580
 H        -0.589363        -1.002965         0.024342
 H         2.388357         1.856489        -0.678511
 H         2.551274         1.793840         1.014015
 H         2.651753        -0.115649        -1.915974
 H         2.146212        -1.871770        -0.889897
 H         5.031027        -0.317766         2.632662
 H         4.251930         1.127143         2.188474
 H         2.161300        -1.911153         1.094888
