19
Iteration:  3205charge 0 multiplicity 1
 C        -0.155993        -0.029106        -0.029743
 C         1.410641        -0.084659         0.069404
 C         2.364889         1.108518         0.178396
 C         3.185877        -0.216654         0.141183
 C         2.305769        -0.697389        -1.096445
 O         4.607093        -0.228887         0.711529
 C         4.274666         0.041943         2.100255
 O         2.833523        -0.344017         2.382951
 C         2.272855        -0.825772         1.124813
 H        -0.222961         0.532488         0.958666
 H        -0.362022         0.568524        -0.968867
 H        -0.675558        -0.964199         0.033873
 H         2.516883         1.659003        -0.724858
 H         2.518505         1.713238         1.050213
 H         2.510769        -0.078715        -1.923660
 H         2.296155        -1.806693        -1.142201
 H         4.839606        -0.592561         2.727817
 H         4.353147         1.077128         2.476296
 H         2.183735        -1.856243         1.358672
