19
Iteration:  1074charge 0 multiplicity 1
 C        -0.089163         0.057935         0.163119
 C         1.361670        -0.102778         0.064603
 C         2.366725         1.131960        -0.007720
 C         3.186051        -0.118864         0.080356
 C         2.234062        -0.752784        -1.038505
 O         4.512879         0.039881         0.732124
 C         4.260295        -0.357681         2.121027
 O         2.906507        -0.349776         2.389875
 C         2.378720        -0.784140         1.127286
 H        -0.468127         0.687138         0.992670
 H        -0.473998         0.634609        -0.744595
 H        -0.511743        -1.000479         0.169900
 H         2.414292         1.714758        -0.950550
 H         2.531898         1.816995         0.867753
 H         2.284399        -0.394695        -1.984956
 H         2.246137        -1.792328        -1.018706
 H         4.745796        -1.388939         2.077832
 H         4.707559         0.332628         2.837770
 H         2.346482        -1.872500         0.896267
