19
Iteration:   777charge 0 multiplicity 1
 C        -0.175466        -0.040618         0.147933
 C         1.333070        -0.040704         0.069255
 C         2.271579         1.182907        -0.078554
 C         3.229579        -0.073166         0.079441
 C         2.359831        -0.744603        -1.052701
 O         4.527232        -0.055501         0.748233
 C         4.316674        -0.524119         2.083947
 O         2.911096        -0.234118         2.490762
 C         2.360958        -0.667290         1.140488
 H        -0.567977         0.703169         0.791484
 H        -0.419234         0.075542        -0.871127
 H        -0.550095        -1.141215         0.293124
 H         2.280267         1.711446        -1.127356
 H         2.442810         1.944938         0.714212
 H         2.277938        -0.194505        -2.032518
 H         2.222220        -1.794248        -1.165227
 H         4.816503        -1.519021         2.169806
 H         4.775484         0.245753         2.706812
 H         2.269563        -1.840044         1.241237
