19
Iteration:  1624
 C        -0.177239         0.055881         0.022367
 C         1.366367        -0.027614         0.049072
 C         2.307131         1.111285         0.104304
 C         3.215040        -0.143246         0.105747
 C         2.345759        -0.716283        -0.966720
 O         4.674344        -0.318375         0.614538
 C         4.301514        -0.094726         2.116287
 O         2.814100        -0.289984         2.406216
 C         2.280694        -0.769437         1.188897
 H        -0.520360         0.550146         1.017297
 H        -0.546541         0.453904        -0.945336
 H        -0.567921        -0.957230         0.052239
 H         2.304166         1.623231        -0.863606
 H         2.537433         1.753600         0.943037
 H         2.256267        -0.315397        -2.015079
 H         2.299726        -1.786346        -1.066151
 H         4.762007        -0.876928         2.696274
 H         4.599939         0.854759         2.428166
 H         2.305973        -1.902728         1.195384
