19
Iteration:  4023charge 0 multiplicity 1
 C        -0.104288        -0.052297         0.066617
 C         1.352234        -0.086309         0.088557
 C         2.360611         1.117457         0.045648
 C         3.277180        -0.115729         0.118232
 C         2.449984        -0.805299        -1.033379
 O         4.524871        -0.029723         0.738488
 C         4.263852        -0.364722         2.059369
 O         2.780166        -0.116810         2.406314
 C         2.299216        -0.777158         1.135284
 H        -0.759707         0.294052         0.974325
 H        -0.505795         0.492397        -0.780113
 H        -0.487630        -1.126772        -0.086989
 H         2.407756         1.647354        -0.910833
 H         2.362919         1.901890         0.784243
 H         2.490256        -0.173196        -1.963053
 H         2.485400        -1.869884        -1.098722
 H         4.186989        -1.413247         2.319914
 H         4.914699         0.109563         2.741063
 H         2.154575        -1.838829         1.157125
