19
Iteration:   284
 C        -0.175653        -0.111355         0.058724
 C         1.382389         0.063506         0.065634
 C         2.335719         1.229654        -0.056241
 C         3.218405        -0.089885         0.133811
 C         2.361785        -0.750318        -0.975590
 O         4.545013        -0.084823         0.721469
 C         4.256681        -0.520147         2.112375
 O         2.891938        -0.155282         2.372770
 C         2.333045        -0.724551         1.156863
 H        -0.673403         0.630817         0.844529
 H        -0.789079        -0.296102        -0.755384
 H        -0.110094        -1.128361         0.574193
 H         2.443882         1.688695        -0.942677
 H         2.187751         1.921577         0.789906
 H         2.359019        -0.384314        -2.001609
 H         2.227434        -1.751705        -0.901592
 H         4.510640        -1.667211         2.170481
 H         4.829449         0.153661         2.811765
 H         2.391339        -1.814787         1.168255
