19
Iteration:   861
 C        -0.151667        -0.112753         0.015968
 C         1.329198         0.055519         0.121711
 C         2.331067         1.215968         0.195633
 C         3.236819        -0.232350         0.153021
 C         2.315199        -0.621207        -1.048088
 O         4.587767        -0.394342         0.661383
 C         4.371660        -0.055692         2.015901
 O         2.861332        -0.295467         2.361072
 C         2.266744        -0.776210         1.138322
 H        -0.606036         0.163077         1.058166
 H        -0.689652         0.628679        -0.558501
 H        -0.431996        -1.204955        -0.168398
 H         2.252737         1.653202        -0.847150
 H         2.374106         1.894427         1.016039
 H         2.531865         0.044610        -1.932245
 H         2.317731        -1.673314        -1.327027
 H         5.080343        -0.668454         2.587928
 H         4.522076         0.952541         2.516066
 H         1.992027        -1.784101         1.397879
