19
Iteration:  1862charge 0 multiplicity 1
 C        -0.112319        -0.046595         0.016989
 C         1.352196         0.051801         0.146002
 C         2.419029         1.206715         0.212782
 C         3.242062        -0.244212         0.161240
 C         2.266554        -0.676810        -0.994233
 O         4.606728        -0.412405         0.713244
 C         4.204921        -0.017436         2.032056
 O         2.884779        -0.270966         2.232888
 C         2.291520        -0.823615         1.131163
 H        -0.693421         0.430629         0.893806
 H        -0.507763         0.455778        -0.874479
 H        -0.587489        -1.021350         0.084604
 H         2.440254         1.665054        -0.811121
 H         2.606912         1.766640         1.172705
 H         2.380808        -0.128013        -1.945851
 H         2.129445        -1.761367        -1.084325
 H         4.882686        -0.513970         2.845405
 H         4.420500         1.094538         1.972368
 H         2.015850        -1.805273         1.348293
