19
Iteration:  3637charge 0 multiplicity 1
 C        -0.113274        -0.124173        -0.023949
 C         1.368187         0.011345         0.080447
 C         2.341118         1.149771         0.168117
 C         3.217857        -0.146960         0.141036
 C         2.336668        -0.674359        -0.999743
 O         4.569845        -0.277618         0.703220
 C         4.260109        -0.172854         2.122498
 O         2.808341        -0.220074         2.344636
 C         2.349254        -0.719564         1.109198
 H        -0.752110         0.587656         0.417711
 H        -0.437730        -0.018655        -1.054298
 H        -0.261182        -1.244421         0.130898
 H         2.480672         1.742166        -0.744054
 H         2.302774         1.573939         1.176623
 H         2.392135        -0.174674        -1.952511
 H         2.080409        -1.780960        -0.980564
 H         4.858135        -0.904302         2.761583
 H         4.693784         0.881993         2.408497
 H         2.386257        -1.918361         1.114463
