19
Iteration:  3044charge 0 multiplicity 1
 C        -0.064537         0.018267        -0.018660
 C         1.369615        -0.060023         0.049325
 C         2.354899         1.098045         0.063308
 C         3.222061        -0.083909         0.129782
 C         2.328367        -0.802579        -0.922111
 O         4.517455        -0.046460         0.698818
 C         4.231994        -0.247587         2.095743
 O         2.821011        -0.265623         2.396787
 C         2.353114        -0.824813         1.179483
 H        -0.639263         0.561270         0.657682
 H        -0.368739         0.286354        -0.998453
 H        -0.512541        -0.940898         0.024593
 H         2.384957         1.736756        -0.902151
 H         2.499285         1.847082         0.860155
 H         2.355955        -0.248667        -1.826278
 H         2.318263        -1.913378        -0.980192
 H         4.542941        -1.336575         2.191765
 H         4.866259         0.390241         2.739547
 H         2.502380        -1.893314         1.000811
