19
Iteration:  2976
 C        -0.020478        -0.099081        -0.035898
 C         1.386522        -0.020811         0.196119
 C         2.356967         1.164372         0.121212
 C         3.212216        -0.147219         0.142225
 C         2.363783        -0.746705        -1.041606
 O         4.551763        -0.213865         0.672029
 C         4.242397        -0.264327         2.123482
 O         2.835051        -0.185857         2.354778
 C         2.247179        -0.653584         1.120667
 H        -0.693878         0.012760         0.817526
 H        -0.718290         0.387788        -0.785575
 H        -0.233009        -1.136278        -0.238130
 H         2.328412         1.678811        -0.882033
 H         2.371953         1.839782         1.041451
 H         2.303295        -0.170072        -1.951843
 H         2.281143        -1.908073        -1.112189
 H         4.783911        -1.233243         2.373802
 H         4.602726         0.575379         2.789850
 H         2.238324        -1.778447         1.218851
