19
Iteration:   685
 C        -0.148408         0.059537         0.006608
 C         1.413300        -0.038341         0.129972
 C         2.282612         1.170120         0.137105
 C         3.204357        -0.108906         0.020452
 C         2.346489        -0.827791        -0.932961
 O         4.522776        -0.220479         0.633050
 C         4.313728        -0.150860         2.066252
 O         2.883723        -0.337760         2.419168
 C         2.340951        -0.777065         1.134599
 H        -0.617545         0.405557         1.052883
 H        -0.486555         0.752838        -0.882537
 H        -0.611504        -0.856772        -0.356939
 H         2.178808         1.853138        -0.734790
 H         2.439714         1.673612         1.171147
 H         2.251861        -0.399258        -1.859640
 H         2.422395        -1.910226        -0.942405
 H         5.014829        -0.914387         2.628651
 H         4.466413         0.923678         2.391115
 H         2.317412        -1.864271         1.165570
