19
Iteration:  3466charge 0 multiplicity 1
 C        -0.100499        -0.035433        -0.044141
 C         1.347370        -0.076173         0.113726
 C         2.363409         1.158891         0.128367
 C         3.188781        -0.209581         0.092534
 C         2.356496        -0.753130        -1.005336
 O         4.548102        -0.131126         0.698472
 C         4.238185        -0.141252         2.082088
 O         2.843888        -0.280250         2.423075
 C         2.338600        -0.821369         1.182263
 H        -0.561874         0.677990         0.747532
 H        -0.238683         0.480601        -1.021186
 H        -0.665511        -0.908086         0.006257
 H         2.528192         1.747069        -0.794242
 H         2.448562         1.911608         0.941041
 H         2.276533        -0.240269        -1.984157
 H         2.337016        -1.873098        -1.251219
 H         4.870742        -0.989208         2.461827
 H         4.543806         0.971054         2.560065
 H         2.313862        -2.005260         1.015924
