19
Iteration:  4200
 C        -0.070894        -0.028766         0.065662
 C         1.390864        -0.063265         0.112732
 C         2.441351         1.120050         0.086747
 C         3.277849        -0.169111         0.132947
 C         2.338083        -0.713024        -1.031349
 O         4.551569        -0.285306         0.718331
 C         4.211850         0.039066         2.074251
 O         2.729096        -0.313482         2.395051
 C         2.336541        -0.815905         1.089890
 H        -0.522113         0.284369         1.074495
 H        -0.365711         0.655681        -0.741644
 H        -0.428254        -0.991783        -0.206068
 H         2.483848         1.719978        -0.807407
 H         2.367327         1.619470         1.024777
 H         2.265066        -0.302813        -2.129905
 H         2.217160        -1.799834        -1.226877
 H         4.718304        -0.582597         2.764751
 H         4.253731         1.068915         2.244340
 H         2.326977        -1.868479         1.036854
