19
Iteration:   798
 C        -0.147322         0.063429         0.037896
 C         1.348983        -0.087325         0.060158
 C         2.368520         1.095760         0.086026
 C         3.194625        -0.117870         0.149267
 C         2.275048        -0.809706        -0.961740
 O         4.515976         0.052244         0.665555
 C         4.300871        -0.347437         2.063476
 O         2.926817        -0.305501         2.383421
 C         2.344281        -0.784324         1.177872
 H        -0.366277         0.832898         0.803932
 H        -0.547758         0.430344        -0.899589
 H        -0.691413        -0.967683         0.272841
 H         2.451483         1.598211        -0.980944
 H         2.150884         1.853352         0.856418
 H         2.419513        -0.283336        -1.923527
 H         2.376208        -1.834116        -1.039605
 H         4.740168        -1.420343         2.072553
 H         4.886728         0.227454         2.842603
 H         2.190753        -1.870299         1.072965
