19
Iteration:  1197charge 0 multiplicity 1
 C        -0.150975        -0.051969         0.057423
 C         1.346280        -0.001654         0.071268
 C         2.241352         1.261278         0.163471
 C         3.259257        -0.269965         0.118779
 C         2.371342        -0.584410        -1.004130
 O         4.551203        -0.389695         0.607869
 C         4.298511        -0.049516         2.105119
 O         2.908055        -0.387236         2.403527
 C         2.303337        -0.760700         1.154411
 H        -0.600159         0.299420         1.091258
 H        -0.619186         0.655497        -0.697032
 H        -0.447537        -1.006792        -0.290189
 H         2.322402         1.851021        -0.836203
 H         2.466340         1.858552         1.061283
 H         2.464012         0.010645        -1.884649
 H         2.337143        -1.587025        -1.333702
 H         4.984981        -0.691579         2.752073
 H         4.678775         0.990050         2.143702
 H         1.951634        -1.822761         1.031493
