19
Iteration:  2544
 C        -0.133199        -0.093767        -0.016654
 C         1.342870         0.035357         0.160096
 C         2.420844         1.139587         0.121641
 C         3.267695        -0.164291         0.137558
 C         2.368633        -0.689072        -0.994804
 O         4.563202        -0.221689         0.588905
 C         4.239345        -0.151197         2.088981
 O         2.823013        -0.287184         2.369142
 C         2.266043        -0.729659         1.200761
 H        -0.709933         0.406168         0.808887
 H        -0.467461         0.236911        -1.055603
 H        -0.516535        -1.237343         0.199365
 H         2.712068         1.546370        -0.803596
 H         2.577734         1.865970         0.902221
 H         2.167090        -0.268529        -1.962260
 H         2.508356        -1.797422        -1.012992
 H         4.694722        -1.083606         2.633864
 H         4.497594         0.809701         2.542566
 H         2.005346        -1.839358         1.260178
