19
Iteration:  2190charge 0 multiplicity 1
 C        -0.117151         0.111208        -0.016170
 C         1.339744        -0.020399         0.167328
 C         2.411231         1.107452         0.218855
 C         3.183094        -0.277829         0.139414
 C         2.392286        -0.810549        -0.988094
 O         4.533179        -0.222994         0.682056
 C         4.223710        -0.002453         1.995540
 O         2.882320        -0.304499         2.268363
 C         2.268160        -0.873217         1.174870
 H        -0.507609         0.653627         0.887138
 H        -0.278055         0.723166        -0.915356
 H        -0.603519        -0.836316         0.080824
 H         2.487391         1.716226        -0.678786
 H         2.430791         1.687726         1.101890
 H         2.262542        -0.241349        -1.892050
 H         2.204755        -1.873868        -1.037098
 H         4.990225        -0.610454         2.671422
 H         4.463732         1.011410         2.365094
 H         2.401810        -1.952265         1.120166
