19
Iteration:  3849charge 0 multiplicity 1
 C        -0.099526         0.065009         0.030303
 C         1.389566        -0.090843         0.055595
 C         2.306540         1.135446         0.117230
 C         3.245231        -0.101995         0.128172
 C         2.376056        -0.818745        -1.004072
 O         4.563829        -0.187426         0.703241
 C         4.291219        -0.046223         2.087580
 O         2.780790        -0.328210         2.392590
 C         2.343521        -0.889461         1.126330
 H        -0.636867         0.517076         0.873492
 H        -0.260850         0.726702        -0.724539
 H        -0.572950        -0.804574        -0.319842
 H         2.462237         1.607070        -0.884875
 H         2.119088         1.783787         0.998906
 H         2.180643        -0.342537        -2.010182
 H         2.325613        -1.841935        -1.156810
 H         4.856373        -0.768583         2.767420
 H         4.230861         1.009540         2.449332
 H         2.467330        -2.022981         1.196771
