19
Iteration:  4099
 C        -0.114057        -0.045632        -0.057248
 C         1.387243        -0.002706         0.036571
 C         2.346667         1.140782         0.129788
 C         3.221297        -0.162630         0.185485
 C         2.398767        -0.729883        -0.976409
 O         4.514387        -0.198433         0.651434
 C         4.259772        -0.167608         2.070312
 O         2.852131        -0.202218         2.425845
 C         2.279844        -0.840644         1.176990
 H        -0.662143         0.526186         0.836112
 H        -0.456941         0.276501        -1.033617
 H        -0.468013        -1.155316        -0.027406
 H         2.578593         1.790368        -0.707525
 H         2.171443         1.727683         1.035929
 H         2.496704        -0.314075        -2.148675
 H         2.384167        -1.890459        -1.097925
 H         4.843337        -0.969809         2.579780
 H         4.514949         0.703047         2.618257
 H         2.292540        -1.922814         1.139047
