19
Iteration:  1978charge 0 multiplicity 1
 C        -0.228494        -0.028950         0.083526
 C         1.324143        -0.043563         0.101365
 C         2.348497         1.208463         0.103462
 C         3.302827        -0.121801         0.111499
 C         2.453356        -0.822803        -1.007466
 O         4.576131        -0.248264         0.629283
 C         4.283749        -0.304184         2.081504
 O         2.825153        -0.106876         2.332818
 C         2.267486        -0.713370         1.191202
 H        -0.530904         0.293477         1.079360
 H        -0.530472         0.615417        -0.726543
 H        -0.675394        -1.027441        -0.070849
 H         2.358730         1.847674        -0.722370
 H         2.289354         1.695980         1.085176
 H         2.408966        -0.374335        -2.044146
 H         2.669790        -1.899888        -0.946362
 H         4.384460        -1.476511         2.350426
 H         4.967856         0.434889         2.594420
 H         2.133686        -1.847209         1.236286
