19
Iteration:  4838charge 0 multiplicity 1
 C        -0.114534        -0.022592        -0.020289
 C         1.365241        -0.107957         0.051087
 C         2.279364         1.143089         0.062310
 C         3.229894        -0.082912         0.195411
 C         2.397465        -0.708708        -1.002312
 O         4.588693        -0.232811         0.633728
 C         4.259741        -0.213566         2.174991
 O         2.844161        -0.220337         2.416955
 C         2.281403        -0.774666         1.124672
 H        -0.467456         0.653296         0.766236
 H        -0.583734         0.432994        -0.981214
 H        -0.469222        -1.031060         0.300181
 H         2.314198         1.710341        -0.841625
 H         2.134192         1.716522         1.050340
 H         2.477179        -0.200199        -1.984192
 H         2.360551        -1.795257        -1.328386
 H         4.799832        -1.153179         2.690873
 H         4.677393         0.726361         2.484597
 H         2.363427        -1.943852         1.216513
