19
Iteration:  1279charge 0 multiplicity 1
 C        -0.221839         0.030795         0.121100
 C         1.419928        -0.071894         0.053854
 C         2.367613         1.234632         0.053389
 C         3.218394        -0.078980         0.101949
 C         2.322628        -0.647064        -0.998057
 O         4.574696        -0.349386         0.700433
 C         4.322814        -0.072874         2.083552
 O         2.857768        -0.449520         2.414217
 C         2.321452        -0.814958         1.082818
 H        -0.518780         0.668677         0.957405
 H        -0.592708         0.464827        -0.836118
 H        -0.763261        -0.996894         0.376496
 H         2.549557         1.685786        -0.891723
 H         2.293922         1.852590         0.924807
 H         2.418344        -0.029367        -1.929156
 H         1.973538        -1.744509        -1.184404
 H         5.004300        -0.622487         2.726974
 H         4.219697         1.024068         2.322479
 H         2.403367        -1.832897         0.931041
