19
Iteration:  1199
 C        -0.151738        -0.031292         0.059831
 C         1.354348        -0.011766         0.087271
 C         2.229459         1.258853         0.154100
 C         3.261448        -0.275346         0.120236
 C         2.369328        -0.585916        -1.003354
 O         4.542921        -0.382905         0.607115
 C         4.300406        -0.038211         2.119059
 O         2.913470        -0.391694         2.391345
 C         2.305510        -0.773515         1.137325
 H        -0.604088         0.347041         1.111115
 H        -0.568586         0.686212        -0.700397
 H        -0.541661        -1.025156        -0.310533
 H         2.244770         1.791801        -0.805520
 H         2.522665         1.802398         1.085300
 H         2.504359         0.044771        -1.949326
 H         2.372993        -1.655356        -1.360990
 H         4.939554        -0.682248         2.803439
 H         4.707140         1.014555         2.193706
 H         2.010868        -1.800956         1.079718
