19
Iteration:  2895charge 0 multiplicity 1
 C        -0.108748         0.061937         0.004746
 C         1.365269        -0.115262         0.053928
 C         2.353087         1.066755         0.133378
 C         3.264256        -0.129556         0.122993
 C         2.387385        -0.730417        -0.951895
 O         4.548493        -0.159067         0.667614
 C         4.225059        -0.116377         2.097079
 O         2.782485        -0.304597         2.351835
 C         2.362021        -0.813225         1.135678
 H        -0.539830         0.776290         0.736599
 H        -0.392611         0.271561        -0.972521
 H        -0.619528        -0.910104         0.249367
 H         2.387516         1.858070        -0.568573
 H         2.370491         1.436411         1.104416
 H         2.255132        -0.218832        -2.001378
 H         2.580102        -1.792391        -0.976955
 H         4.857470        -0.956918         2.516668
 H         4.428876         0.840707         2.574534
 H         2.111372        -1.916662         1.087338
