19
Iteration:   796charge 0 multiplicity 1
 C        -0.152764         0.045175         0.033142
 C         1.354873        -0.094164         0.066153
 C         2.375763         1.111531         0.058939
 C         3.197182        -0.118662         0.138979
 C         2.276393        -0.798760        -0.977126
 O         4.499440         0.047289         0.673931
 C         4.309411        -0.345318         2.072742
 O         2.932282        -0.304531         2.403284
 C         2.336880        -0.788970         1.176337
 H        -0.371755         0.876024         0.826464
 H        -0.616131         0.461355        -0.885535
 H        -0.696857        -0.954294         0.310993
 H         2.418615         1.631582        -0.997423
 H         2.190092         1.835991         0.851495
 H         2.394762        -0.268069        -1.925920
 H         2.377027        -1.844120        -1.054609
 H         4.702718        -1.442616         2.125800
 H         4.995323         0.167450         2.850004
 H         2.240507        -1.813371         1.049922
