19
Iteration:  2495charge 0 multiplicity 1
 C        -0.213463         0.080376        -0.001138
 C         1.334749        -0.171821         0.094665
 C         2.313239         1.129204         0.102374
 C         3.264400        -0.140435         0.141398
 C         2.386220        -0.770202        -0.952650
 O         4.634368        -0.193148         0.631288
 C         4.322334        -0.176815         2.125917
 O         2.860165        -0.216936         2.388564
 C         2.259136        -0.822638         1.115826
 H        -0.601108         0.449289         0.967360
 H        -0.267523         0.822435        -0.795452
 H        -0.855720        -0.707152        -0.208419
 H         2.073538         1.667646        -0.890580
 H         2.179102         1.719564         1.029884
 H         2.549841        -0.241389        -1.981665
 H         2.394388        -1.888880        -1.123899
 H         4.691864        -1.018437         2.745746
 H         4.634414         0.825205         2.501761
 H         2.209350        -1.944473         1.135094
