19
Iteration:  3889
 C        -0.108654         0.072845         0.097096
 C         1.412835        -0.075341         0.055388
 C         2.424613         1.181155         0.068255
 C         3.210351        -0.297979         0.170290
 C         2.353576        -0.761824        -1.056168
 O         4.543372        -0.185715         0.708839
 C         4.216019         0.063374         2.094818
 O         2.773604        -0.399388         2.387403
 C         2.310410        -0.868309         1.128925
 H        -0.409077         0.072093         1.129613
 H        -0.578490         0.868097        -0.643541
 H        -0.454247        -0.998349        -0.325384
 H         2.737886         1.774050        -0.761923
 H         2.230075         1.683461         1.011510
 H         2.472988        -0.214304        -2.016343
 H         2.515850        -1.881963        -1.237103
 H         5.020232        -0.288771         2.697480
 H         4.274151         1.136854         2.179630
 H         2.199592        -1.908627         0.941079
