19
Iteration:  2277charge 0 multiplicity 1
 C        -0.104720        -0.074114         0.085658
 C         1.400354        -0.050679         0.023855
 C         2.469804         1.161734         0.161242
 C         3.231877        -0.202388         0.126484
 C         2.295378        -0.659111        -1.028554
 O         4.491216        -0.318120         0.640777
 C         4.275689        -0.117262         2.118253
 O         2.799244        -0.133856         2.346398
 C         2.318190        -0.840950         1.142506
 H        -0.591245         0.564871         0.978543
 H        -0.464933         0.429989        -0.878099
 H        -0.542472        -1.088167         0.035423
 H         2.518259         1.778962        -0.701969
 H         2.350896         1.603539         1.094303
 H         2.199032        -0.257979        -2.064150
 H         2.263242        -1.756017        -0.981957
 H         4.967693        -0.887522         2.680544
 H         4.618870         0.884217         2.437489
 H         2.307102        -1.990335         1.262017
