19
Iteration:   726
 C        -0.133210        -0.163703         0.067337
 C         1.324301         0.008914         0.132197
 C         2.343291         1.185433         0.095065
 C         3.238248        -0.208460         0.124281
 C         2.372627        -0.679657        -1.073254
 O         4.541471        -0.207723         0.642247
 C         4.278757        -0.348615         2.103010
 O         2.888220        -0.068895         2.352238
 C         2.281684        -0.700821         1.189870
 H        -0.498081         0.308977         0.991827
 H        -0.629146         0.228193        -0.905769
 H        -0.221511        -1.193694         0.030635
 H         2.365854         1.948410        -0.569292
 H         2.504090         1.582788         1.101936
 H         2.195711        -0.085312        -1.971626
 H         2.193238        -1.832586        -1.239157
 H         4.512111        -1.446098         2.268737
 H         5.030855         0.199001         2.638825
 H         2.118566        -1.732390         1.292018
