19
Iteration:  3964charge 0 multiplicity 1
 C        -0.140983        -0.060616        -0.075923
 C         1.376945        -0.052989         0.087593
 C         2.376578         1.162034         0.122279
 C         3.212729        -0.141583         0.162293
 C         2.359334        -0.727735        -0.938795
 O         4.539349        -0.174710         0.601733
 C         4.203053        -0.125452         2.158706
 O         2.887720        -0.305152         2.421916
 C         2.303060        -0.797305         1.189721
 H        -0.614999         0.731866         0.403015
 H        -0.315607         0.146109        -1.204136
 H        -0.589719        -1.054912         0.143066
 H         2.506643         1.699953        -0.816948
 H         2.352692         1.712546         1.072725
 H         2.439249        -0.142887        -1.891617
 H         2.388397        -1.818804        -1.380124
 H         4.790742        -0.970561         2.395515
 H         4.738742         0.814124         2.431107
 H         2.095688        -1.859437         1.219857
