19
Iteration:   616charge 0 multiplicity 1
 C        -0.066854         0.050581         0.102611
 C         1.388780        -0.074021         0.119906
 C         2.398341         1.118369         0.213614
 C         3.278655        -0.196856         0.146163
 C         2.272354        -0.685721        -0.980903
 O         4.558097        -0.359745         0.706605
 C         4.216499         0.108710         1.976740
 O         2.847122        -0.390185         2.295281
 C         2.305181        -0.837508         1.052693
 H        -0.339687         0.742575         0.935308
 H        -0.612086         0.409175        -0.901963
 H        -0.640393        -0.906302         0.306251
 H         2.316257         1.777709        -0.643674
 H         2.334814         1.684060         1.127456
 H         2.309133        -0.178669        -1.954591
 H         2.428747        -1.763937        -1.205516
 H         4.929347        -0.295350         2.792864
 H         4.089189         1.230169         2.005074
 H         2.105057        -1.861871         1.150999
