19
Iteration:  3226charge 0 multiplicity 1
 C        -0.137303        -0.037340         0.042329
 C         1.453778        -0.008111         0.102394
 C         2.416050         1.115945         0.146508
 C         3.303538        -0.211944         0.177777
 C         2.375593        -0.653930        -1.014540
 O         4.501888        -0.305830         0.696509
 C         4.166826         0.023920         2.031281
 O         2.784085        -0.324542         2.360753
 C         2.364324        -0.823329         1.081455
 H        -0.764380         0.566311         0.874723
 H        -0.410850         0.129321        -1.064569
 H        -0.354351        -1.084995         0.227972
 H         2.514618         1.666576        -0.737433
 H         2.307821         1.628274         1.073875
 H         2.208714        -0.019286        -1.816435
 H         2.225243        -1.733925        -1.212472
 H         4.855596        -0.518716         2.637199
 H         4.214082         1.117670         2.279966
 H         2.231068        -1.877919         1.228470
