19
Iteration:  4379charge 0 multiplicity 1
 C        -0.126110        -0.059067         0.071814
 C         1.415131        -0.058931         0.042000
 C         2.407983         1.074529         0.103072
 C         3.250586        -0.213678         0.118773
 C         2.283426        -0.719143        -1.066130
 O         4.557355        -0.230788         0.719685
 C         4.258646        -0.038999         2.155004
 O         2.795723        -0.299018         2.392721
 C         2.292542        -0.705470         1.076421
 H        -0.487522         0.241986         0.973856
 H        -0.364517         0.617428        -0.790448
 H        -0.362109        -1.065817        -0.205837
 H         2.581145         1.769963        -0.793503
 H         2.372432         1.766821         0.963300
 H         2.516253        -0.265759        -1.968568
 H         2.221744        -1.837675        -1.260305
 H         4.723905        -0.743609         2.869301
 H         4.502800         1.045966         2.454772
 H         2.172001        -1.751250         1.162848
