19
Iteration:  4755charge 0 multiplicity 1
 C        -0.116380         0.086235         0.012050
 C         1.367990        -0.097681         0.057010
 C         2.260752         1.079249         0.180506
 C         3.278082        -0.190453         0.161544
 C         2.457949        -0.751868        -0.985996
 O         4.557521        -0.299230         0.688379
 C         4.175441         0.042541         2.024505
 O         2.817139        -0.353486         2.362146
 C         2.359505        -0.828849         1.133707
 H        -0.316783         0.435438         1.075459
 H        -0.390501         0.834326        -0.610969
 H        -0.766619        -0.687183        -0.358423
 H         2.294385         1.891502        -0.665197
 H         2.307550         1.665945         1.117444
 H         2.473107        -0.134768        -1.934706
 H         2.494210        -1.819277        -0.979259
 H         4.851668        -0.457060         2.603316
 H         4.350028         1.140379         2.129647
 H         2.222992        -1.854412         1.028809
