19
Iteration:  1169
 C        -0.101332        -0.212208         0.010524
 C         1.341793         0.060616         0.083413
 C         2.515926         1.275773         0.245625
 C         3.174231        -0.102691         0.119544
 C         2.276839        -0.589853        -0.956886
 O         4.426898        -0.405413         0.621660
 C         4.351575        -0.110118         2.045836
 O         2.863496        -0.333786         2.352501
 C         2.264838        -0.704963         1.145508
 H        -0.628352        -0.006485         0.929395
 H        -0.576034         0.298215        -0.790613
 H        -0.158252        -1.350570        -0.161688
 H         2.578397         1.965800        -0.530351
 H         2.806131         1.817483         1.178770
 H         2.373546        -0.151796        -2.036869
 H         2.225039        -1.752199        -0.930000
 H         4.901611        -0.895691         2.545261
 H         4.710513         0.920601         2.165054
 H         2.142045        -1.763005         0.935709
