19
Iteration:  1653charge 0 multiplicity 1
 C        -0.113544         0.071356        -0.058835
 C         1.364152        -0.093712         0.098698
 C         2.309550         1.129629         0.084111
 C         3.137436        -0.113094         0.109536
 C         2.360896        -0.808102        -0.964725
 O         4.480721        -0.162476         0.706309
 C         4.340478        -0.283015         2.044446
 O         2.916298        -0.206348         2.358328
 C         2.324213        -0.760257         1.244371
 H        -0.541521         0.517177         0.850739
 H        -0.229940         0.707548        -0.931747
 H        -0.639231        -0.873554        -0.089012
 H         2.284259         1.679066        -0.827019
 H         2.480482         1.681849         1.048310
 H         2.224211        -0.385635        -1.956172
 H         2.378170        -1.894335        -0.990604
 H         4.647895        -1.308301         2.373285
 H         4.811520         0.634541         2.605614
 H         2.466145        -1.909847         1.405259
