19
Iteration:  1826charge 0 multiplicity 1
 C        -0.107699         0.027105        -0.000487
 C         1.401741        -0.018880        -0.005365
 C         2.369319         1.162882         0.102799
 C         3.155136        -0.196548         0.167110
 C         2.279213        -0.768323        -1.000084
 O         4.555112        -0.298603         0.610190
 C         4.250431        -0.103765         2.058148
 O         2.901677        -0.320417         2.473893
 C         2.332952        -0.761311         1.215078
 H        -0.260507         0.444533         0.993868
 H        -0.460755         0.860895        -0.632286
 H        -0.594970        -0.942938        -0.227535
 H         2.399383         1.791928        -0.810540
 H         2.336652         1.889040         1.038361
 H         2.519576        -0.205078        -1.937792
 H         2.296268        -1.865670        -1.094656
 H         4.827113        -0.674404         2.668233
 H         4.392659         0.970279         2.316513
 H         1.979329        -1.812257         1.108952
