19
Iteration:  4784charge 0 multiplicity 1
 C        -0.122939        -0.086407        -0.036380
 C         1.350604        -0.014728         0.090398
 C         2.413579         1.130066         0.128651
 C         3.232935        -0.238987         0.159994
 C         2.291931        -0.654775        -1.071707
 O         4.559686        -0.290688         0.744352
 C         4.252242         0.013888         2.067622
 O         2.828579        -0.295745         2.403446
 C         2.325110        -0.787194         1.168987
 H        -0.620278        -0.030289         0.947912
 H        -0.409696         0.867489        -0.704471
 H        -0.571567        -1.074629        -0.466949
 H         2.576912         1.648528        -0.762499
 H         2.638975         1.606894         1.121390
 H         2.327222        -0.066074        -2.007705
 H         2.185844        -1.723682        -1.335733
 H         4.990474        -0.691479         2.665647
 H         4.490144         1.116835         2.214097
 H         2.171234        -1.961222         1.093175
