19
Iteration:   208charge 0 multiplicity 1
 C        -0.146545         0.043229        -0.059560
 C         1.353904        -0.044640         0.149498
 C         2.364360         1.141770         0.184669
 C         3.253599        -0.184199         0.124509
 C         2.303725        -0.737029        -0.974614
 O         4.618803        -0.282854         0.581611
 C         4.266385         0.016874         2.038142
 O         2.807486        -0.369547         2.429467
 C         2.355555        -0.821377         1.180196
 H        -0.773849         0.132056         0.931198
 H        -0.357452         0.860839        -0.644908
 H        -0.542706        -0.895957        -0.493013
 H         2.362086         1.695524        -0.718676
 H         2.384004         1.786039         1.106046
 H         2.185454        -0.140062        -1.914671
 H         2.335540        -1.787211        -1.056668
 H         4.812042        -0.676345         2.637913
 H         4.499125         1.075760         2.269249
 H         2.181824        -1.939871         1.206653
