19
Iteration:  1367charge 0 multiplicity 1
 C        -0.091225         0.121596         0.016505
 C         1.335391        -0.109198         0.101497
 C         2.282399         1.180007         0.034423
 C         3.201851        -0.064180         0.131431
 C         2.341293        -0.776433        -0.939409
 O         4.484576        -0.153372         0.681792
 C         4.389372        -0.280686         2.067264
 O         2.833285        -0.285891         2.360171
 C         2.377135        -0.832008         1.191437
 H        -0.349794         0.382212         1.032732
 H        -0.477213         0.868151        -0.738701
 H        -0.712970        -0.898683        -0.177066
 H         2.305905         1.737394        -0.880339
 H         2.195427         1.754321         0.880356
 H         2.179121        -0.485297        -1.977932
 H         2.407881        -1.916153        -0.958592
 H         4.808309        -1.278891         2.318733
 H         4.934670         0.518361         2.662303
 H         2.500205        -1.862238         1.144350
