19
Iteration:  3212charge 0 multiplicity 1
 C        -0.090190        -0.030041        -0.000074
 C         1.382366        -0.065551         0.067529
 C         2.394232         1.101454         0.146410
 C         3.200002        -0.223263         0.123548
 C         2.300944        -0.665039        -1.066297
 O         4.625380        -0.233207         0.696698
 C         4.260572         0.030237         2.114914
 O         2.809503        -0.324334         2.373187
 C         2.243362        -0.885289         1.174664
 H        -0.494641         0.606821         0.869940
 H        -0.444246         0.428327        -0.939060
 H        -0.527070        -1.048655         0.058754
 H         2.452262         1.800628        -0.688933
 H         2.440054         1.784797         0.990836
 H         2.564252        -0.021494        -1.903255
 H         2.270585        -1.723328        -1.259582
 H         4.899471        -0.566890         2.826262
 H         4.349389         1.143751         2.245874
 H         2.150924        -1.986252         1.167686
