19
Iteration:  1439charge 0 multiplicity 1
 C        -0.111540        -0.096459         0.103677
 C         1.410924         0.024424         0.067340
 C         2.349690         1.175728         0.087329
 C         3.305446        -0.097840         0.111475
 C         2.314700        -0.731166        -0.999480
 O         4.643986        -0.207811         0.570511
 C         4.168502        -0.398841         2.216509
 O         2.833593        -0.107816         2.355587
 C         2.292739        -0.728310         1.124646
 H        -0.626538         0.499583         0.904264
 H        -0.601275        -0.025007        -0.833072
 H        -0.376804        -1.034618         0.443729
 H         2.291315         1.725412        -0.907205
 H         2.411468         1.844974         1.079024
 H         1.983441        -0.309555        -2.000344
 H         2.245495        -1.782685        -1.204892
 H         4.474629        -1.500060         2.296839
 H         4.731148         0.353927         2.830844
 H         1.983604        -1.824244         1.244729
