19
Iteration:   804charge 0 multiplicity 1
 C        -0.129830         0.088660         0.051012
 C         1.335578        -0.070379         0.052620
 C         2.311632         1.080364         0.125816
 C         3.215406        -0.125586         0.183929
 C         2.295352        -0.812169        -0.923619
 O         4.560903         0.061190         0.642570
 C         4.298859        -0.364734         2.035736
 O         2.901290        -0.309388         2.332829
 C         2.343382        -0.791898         1.168642
 H        -0.485564         0.786861         0.865543
 H        -0.355106         0.393439        -1.009124
 H        -0.605085        -0.828769         0.160087
 H         2.504848         1.551473        -0.797255
 H         2.200097         1.806055         0.927477
 H         2.397492        -0.370023        -1.916726
 H         2.315095        -1.978186        -0.973175
 H         4.748324        -1.335096         2.043354
 H         4.587220         0.454768         2.715144
 H         2.169317        -1.895828         1.262874
