19
Iteration:  1397charge 0 multiplicity 1
 C        -0.150380         0.086825         0.133027
 C         1.313391        -0.018316         0.107596
 C         2.336824         1.111277        -0.011060
 C         3.258345        -0.169178         0.121811
 C         2.444258        -0.829610        -1.018739
 O         4.555986         0.001207         0.686774
 C         4.232582        -0.348250         2.117551
 O         2.912443        -0.288585         2.346190
 C         2.229255        -0.768448         1.139436
 H        -0.419611         0.605465         1.044990
 H        -0.533349         0.620760        -0.705579
 H        -0.533426        -0.924018         0.337317
 H         2.513418         1.668133        -0.923084
 H         2.226053         1.807889         0.856561
 H         2.430875        -0.504622        -2.064350
 H         2.433855        -1.867601        -1.002109
 H         4.551270        -1.362981         2.034430
 H         4.784812         0.360020         2.751037
 H         1.996491        -1.911866         1.280637
