19
Iteration:  2046charge 0 multiplicity 1
 C        -0.129481        -0.045908         0.014384
 C         1.423915        -0.037325         0.044866
 C         2.432568         1.260847         0.050437
 C         3.203822        -0.148110         0.123468
 C         2.284230        -0.811499        -0.908330
 O         4.440720        -0.112262         0.663678
 C         4.271541        -0.338339         2.096184
 O         2.939458        -0.204918         2.355130
 C         2.300944        -0.763880         1.177643
 H        -0.500477         0.683363         0.768898
 H        -0.486149         0.167343        -0.960092
 H        -0.546902        -0.997811         0.223605
 H         2.496904         1.785011        -0.900371
 H         2.390133         1.857533         0.969692
 H         2.223990        -0.403685        -1.901810
 H         2.368194        -1.891614        -0.795802
 H         4.633898        -1.476839         2.232362
 H         4.817330         0.400910         2.700769
 H         1.985453        -1.773506         1.389701
