19
Iteration:   553
 C        -0.175248        -0.071968         0.013761
 C         1.378372        -0.062187         0.127402
 C         2.322259         1.216840         0.014591
 C         3.232394        -0.044700         0.139926
 C         2.263442        -0.808140        -0.955128
 O         4.541791        -0.100503         0.657967
 C         4.286872        -0.452235         2.145898
 O         2.903124        -0.117468         2.390496
 C         2.383042        -0.742622         1.141905
 H        -0.690028         0.337971         0.916198
 H        -0.416194         0.537359        -0.868445
 H        -0.463789        -1.050539        -0.006014
 H         2.275545         1.618385        -0.998744
 H         2.304427         1.929522         0.906059
 H         2.336756        -0.461731        -1.905266
 H         2.457172        -1.920079        -0.974683
 H         4.380482        -1.563261         2.084514
 H         4.957004         0.180903         2.672371
 H         2.362202        -1.869812         1.076276
