19
Iteration:  2605charge 0 multiplicity 1
 C        -0.183226        -0.037817         0.078169
 C         1.416704        -0.095870         0.084631
 C         2.362576         1.105185         0.134242
 C         3.237984        -0.179717         0.090519
 C         2.444404        -0.679164        -1.036793
 O         4.523094        -0.207906         0.634298
 C         4.193947        -0.105951         2.127595
 O         2.788988        -0.267078         2.397275
 C         2.349259        -0.782776         1.133893
 H        -0.446478         0.714762         0.841607
 H        -0.378563         0.657127        -0.789153
 H        -0.810134        -0.890524         0.054095
 H         2.583646         1.560751        -0.909778
 H         2.552209         1.804413         1.028598
 H         2.425299        -0.367140        -2.128623
 H         2.395473        -1.809004        -0.997733
 H         4.648963        -1.065016         2.497263
 H         4.795205         0.833043         2.619525
 H         2.291247        -1.870988         1.146423
