19
Iteration:  4201charge 0 multiplicity 1
 C        -0.071093        -0.028853         0.071361
 C         1.396099        -0.075489         0.111797
 C         2.437784         1.110479         0.084292
 C         3.270404        -0.157928         0.136466
 C         2.332196        -0.709145        -1.044339
 O         4.557099        -0.288592         0.716440
 C         4.207890         0.033287         2.080112
 O         2.729196        -0.310326         2.389876
 C         2.334381        -0.805191         1.094206
 H        -0.534087         0.274923         1.084521
 H        -0.335259         0.698397        -0.766412
 H        -0.383635        -1.013385        -0.205263
 H         2.511161         1.702013        -0.831366
 H         2.367181         1.627216         1.040069
 H         2.250951        -0.256164        -2.109944
 H         2.250324        -1.815479        -1.186560
 H         4.715072        -0.595827         2.763740
 H         4.269995         1.079598         2.253690
 H         2.329571        -1.873842         1.067072
