19
Iteration:  2961charge 0 multiplicity 1
 C        -0.166434        -0.169007        -0.002555
 C         1.378704         0.077178         0.074609
 C         2.411188         1.212058         0.089860
 C         3.248074        -0.144389         0.092625
 C         2.359892        -0.715227        -0.957005
 O         4.490220        -0.197966         0.689394
 C         4.266257        -0.247430         2.117652
 O         2.808815        -0.215355         2.362251
 C         2.343964        -0.782630         1.162031
 H        -0.580796         0.232700         0.975811
 H        -0.317737         0.421325        -0.839907
 H        -0.188729        -1.243613        -0.178459
 H         2.452126         1.868617        -0.741311
 H         2.543141         1.706710         1.026222
 H         2.434575        -0.310079        -2.051559
 H         2.234760        -1.773578        -1.023929
 H         4.569894        -1.166298         2.654923
 H         4.768911         0.652588         2.449983
 H         2.109557        -1.879170         1.189369
