19
Iteration:  3805
 C        -0.164153        -0.148062        -0.097080
 C         1.378160        -0.013211         0.083779
 C         2.379973         1.165071         0.162305
 C         3.215337        -0.136199         0.170825
 C         2.306121        -0.650886        -1.067430
 O         4.572463        -0.274128         0.677468
 C         4.331965        -0.146774         2.139061
 O         2.824766        -0.209422         2.400838
 C         2.317704        -0.777248         1.139235
 H        -0.775567         0.519886         0.514664
 H        -0.563525        -0.053815        -1.015817
 H        -0.342091        -1.113464         0.292510
 H         2.461057         1.769923        -0.783192
 H         2.351735         1.833695         1.061377
 H         2.546635        -0.204010        -2.082568
 H         2.244084        -1.677965        -0.879660
 H         4.621402        -1.138591         2.578830
 H         4.625938         0.838345         2.539516
 H         2.209370        -1.890447         1.366636
