19
Iteration:   178charge 0 multiplicity 1
 C        -0.103661        -0.065110        -0.010197
 C         1.369467         0.048030         0.080946
 C         2.403936         1.154267         0.169563
 C         3.202693        -0.155979         0.140449
 C         2.353240        -0.678113        -0.987999
 O         4.471132        -0.436160         0.709655
 C         4.257145         0.122020         1.982179
 O         2.948776        -0.461261         2.387210
 C         2.273228        -0.723494         1.168178
 H        -0.529562         0.036317         0.976074
 H        -0.618423         0.762183        -0.665394
 H        -0.348400        -1.113387        -0.379495
 H         2.484339         1.876140        -0.734504
 H         2.341854         1.814234         1.149452
 H         2.178272        -0.066487        -1.978376
 H         2.443769        -1.760635        -1.292072
 H         4.844568        -0.397214         2.663731
 H         4.328570         1.218542         2.131509
 H         2.002011        -1.789460         1.278758
