19
Iteration:  3651charge 0 multiplicity 1
 C        -0.104923        -0.179100        -0.059410
 C         1.420811        -0.065668         0.118769
 C         2.361491         1.252491         0.139561
 C         3.274609        -0.100758         0.109044
 C         2.354941        -0.693151        -0.992741
 O         4.548056        -0.317804         0.672670
 C         4.272396        -0.172148         2.091426
 O         2.793180        -0.196509         2.402549
 C         2.276399        -0.739240         1.143996
 H        -0.592778         0.433165         0.813917
 H        -0.524611         0.245595        -1.104900
 H        -0.617006        -1.223159         0.168287
 H         2.261135         1.931259        -0.756621
 H         2.403865         1.867104         1.058402
 H         2.363911        -0.142491        -2.013512
 H         2.451206        -1.728355        -1.229265
 H         4.662529        -1.075549         2.575522
 H         4.627435         0.771852         2.590904
 H         2.152370        -1.823546         1.300865
