19
Iteration:  3706
 C        -0.084121        -0.015435         0.025640
 C         1.403263        -0.113484         0.077774
 C         2.363964         1.069382         0.072582
 C         3.279781        -0.082089         0.130960
 C         2.295146        -0.813779        -0.965373
 O         4.543731        -0.012779         0.661588
 C         4.186121        -0.289076         2.198524
 O         2.832734        -0.216334         2.352509
 C         2.331189        -0.759939         1.090295
 H        -0.734710         0.293859         0.853869
 H        -0.375507         0.783788        -0.650477
 H        -0.535285        -0.891846        -0.494286
 H         2.420231         1.491730        -0.949975
 H         2.311371         1.683302         0.984672
 H         2.312528        -0.433939        -2.055814
 H         2.483382        -1.845710        -0.837544
 H         4.632991        -1.308110         2.374200
 H         4.620707         0.409929         2.912484
 H         2.450949        -1.797827         1.286261
