19
Iteration:  4660charge 0 multiplicity 1
 C        -0.093238        -0.093411         0.000734
 C         1.389234        -0.017361         0.069124
 C         2.297229         1.202281         0.185481
 C         3.229147        -0.181624         0.131717
 C         2.420584        -0.706728        -1.081006
 O         4.532137        -0.326871         0.654019
 C         4.276056        -0.108938         2.133166
 O         2.822418        -0.174676         2.415193
 C         2.282919        -0.805251         1.131356
 H        -0.541768         0.588972         0.756026
 H        -0.452227         0.158872        -1.053227
 H        -0.475391        -1.069310        -0.009604
 H         2.324097         1.817186        -0.693886
 H         2.259104         1.771791         1.053659
 H         2.391465        -0.137215        -1.943448
 H         2.541230        -1.788991        -1.169790
 H         4.830580        -1.026817         2.599703
 H         4.785566         0.780273         2.412287
 H         1.954985        -1.881183         1.309751
