19
Iteration:  4986
 C        -0.153026        -0.011076        -0.035255
 C         1.394077        -0.036634         0.079018
 C         2.337072         1.071474         0.035739
 C         3.243634        -0.159719         0.161106
 C         2.310219        -0.725542        -1.032422
 O         4.534229        -0.190028         0.697520
 C         4.294438        -0.159308         2.148519
 O         2.826018        -0.274556         2.423346
 C         2.362160        -0.777036         1.153789
 H        -0.593428         0.514522         0.890929
 H        -0.508270         0.709620        -0.770564
 H        -0.436870        -1.008225        -0.367308
 H         2.557226         1.622038        -0.850699
 H         2.160659         1.753336         0.840306
 H         2.469838        -0.206514        -1.924495
 H         2.251076        -1.728477        -1.048787
 H         4.861252        -0.966406         2.627628
 H         4.721135         0.870337         2.605360
 H         2.203814        -1.898951         1.155074
