19
Iteration:  2758charge 0 multiplicity 1
 C        -0.157458         0.069022         0.030523
 C         1.447745        -0.054708        -0.016788
 C         2.383203         1.201732         0.082237
 C         3.168311        -0.063660         0.197339
 C         2.390161        -0.819015        -1.029861
 O         4.542842        -0.216463         0.701359
 C         4.229456        -0.045406         2.113195
 O         2.818635        -0.379093         2.388605
 C         2.344853        -0.880324         1.104871
 H        -0.469253         0.615104         0.990409
 H        -0.753611         0.362941        -0.946249
 H        -0.558269        -0.951586         0.244209
 H         2.439954         1.958881        -0.782863
 H         2.187049         1.619893         1.140044
 H         2.350795        -0.480219        -2.048805
 H         2.425608        -1.909452        -0.818974
 H         4.792247        -0.850605         2.539816
 H         4.663653         0.896439         2.569944
 H         2.377883        -1.969678         1.105758
