19
Iteration:  1010
 C        -0.082417        -0.195365         0.041498
 C         1.393842         0.035433         0.104629
 C         2.262770         1.267898         0.171685
 C         3.207231        -0.131767         0.139110
 C         2.285779        -0.643372        -1.031415
 O         4.541334        -0.320387         0.599085
 C         4.308672        -0.335787         2.047363
 O         2.964219        -0.148484         2.393336
 C         2.235390        -0.681445         1.160759
 H        -0.663497         0.151760         0.964121
 H        -0.541368         0.398145        -0.864523
 H        -0.280229        -1.244780        -0.197369
 H         2.435810         1.942645        -0.682505
 H         2.272465         1.677942         1.219000
 H         2.388804        -0.133412        -2.000905
 H         2.405136        -1.784033        -1.062463
 H         4.629019        -1.373327         2.320173
 H         4.685878         0.449981         2.699384
 H         2.160733        -1.707298         1.334118
