19
Iteration:  3726
 C        -0.104843         0.014424         0.000149
 C         1.433326        -0.118683         0.101976
 C         2.271464         1.146978         0.001588
 C         3.243097        -0.149357         0.162513
 C         2.396754        -0.808521        -0.982343
 O         4.559515         0.010841         0.745201
 C         4.256202        -0.331732         2.075875
 O         2.776429        -0.198845         2.374301
 C         2.352718        -0.819949         1.130437
 H        -0.416712         0.364399         0.913804
 H        -0.324935         0.714097        -0.682080
 H        -0.766433        -0.832346        -0.246129
 H         2.155338         1.622788        -0.977815
 H         2.472237         1.723733         0.891244
 H         2.165407        -0.428048        -1.973231
 H         2.279061        -1.874012        -1.122146
 H         4.630628        -1.258905         2.537217
 H         4.710638         0.381538         2.798095
 H         2.450320        -1.936783         1.282025
