19
Iteration:  4693
 C        -0.168884        -0.056020         0.013248
 C         1.407733        -0.002698         0.062929
 C         2.400813         1.177634         0.094037
 C         3.308456        -0.134863         0.132441
 C         2.324741        -0.713228        -1.036610
 O         4.577345        -0.253181         0.711193
 C         4.267753        -0.003788         2.085002
 O         2.765788        -0.399403         2.451261
 C         2.315070        -0.800946         1.080773
 H        -0.587846         0.728485         0.697811
 H        -0.573306         0.184844        -1.051813
 H        -0.483075        -0.965984         0.458419
 H         2.464331         1.622605        -0.892825
 H         2.510871         1.689680         0.982187
 H         2.119685        -0.242756        -2.000864
 H         2.447301        -1.832475        -1.099203
 H         4.863244        -0.788325         2.742424
 H         4.354157         0.999744         2.422966
 H         2.043070        -1.895401         1.175707
