19
Iteration:   341
 C        -0.111474        -0.067614        -0.039378
 C         1.362189        -0.095168         0.096308
 C         2.244448         1.181549         0.130526
 C         3.242390        -0.113920         0.159106
 C         2.309733        -0.722455        -0.882703
 O         4.566417        -0.223422         0.626061
 C         4.305620        -0.334651         2.066635
 O         2.897708        -0.141335         2.340325
 C         2.328396        -0.702059         1.157111
 H        -0.496167         0.464780         0.824226
 H        -0.356760         0.575062        -0.933723
 H        -0.725441        -1.044537        -0.135903
 H         2.394576         1.748355        -0.804990
 H         2.072682         1.771528         1.069212
 H         2.369278        -0.271781        -1.924026
 H         2.328651        -1.836640        -0.852965
 H         4.801367        -1.328640         2.367688
 H         4.793943         0.487340         2.667547
 H         2.133681        -1.815807         1.222023
