19
Iteration:  4516charge 0 multiplicity 1
 C        -0.154550        -0.173718         0.023370
 C         1.406387        -0.018255         0.088709
 C         2.368663         1.159552         0.072079
 C         3.179272        -0.112369         0.157590
 C         2.422895        -0.704138        -1.065472
 O         4.625832        -0.225858         0.725330
 C         4.284338        -0.259943         2.107592
 O         2.821662        -0.215145         2.374857
 C         2.224977        -0.688058         1.160750
 H        -0.734679         0.777251         0.493373
 H        -0.427437         0.077462        -1.048830
 H        -0.651222        -1.134968         0.397203
 H         2.451889         1.824760        -0.779192
 H         2.317545         1.978839         0.824367
 H         2.282419        -0.100816        -1.975920
 H         2.270324        -1.734964        -1.202193
 H         4.659059        -1.234290         2.607449
 H         4.726941         0.682123         2.520011
 H         2.081037        -1.859290         1.242799
