19
Iteration:   790
 C        -0.175460         0.013557         0.043329
 C         1.363326        -0.105170         0.078964
 C         2.361273         1.165034        -0.043652
 C         3.218479        -0.118445         0.118937
 C         2.303722        -0.758894        -1.017170
 O         4.463725         0.026682         0.704647
 C         4.355882        -0.376249         2.101343
 O         2.937223        -0.297551         2.460966
 C         2.318024        -0.770981         1.161135
 H        -0.400059         0.734261         0.757177
 H        -0.662306         0.436619        -0.827692
 H        -0.691185        -0.849711         0.420375
 H         2.313487         1.730669        -0.938900
 H         2.418670         1.773412         0.892869
 H         2.257701        -0.239562        -2.000216
 H         2.312801        -1.902756        -1.099794
 H         4.512163        -1.429566         2.240859
 H         5.091858         0.122392         2.679987
 H         2.403554        -1.962586         1.128125
