19
Iteration:   635
 C        -0.166657         0.138867         0.095745
 C         1.413538        -0.075187         0.120461
 C         2.349048         1.057617         0.129584
 C         3.224090        -0.272818         0.109933
 C         2.276959        -0.677107        -1.161133
 O         4.604645        -0.335857         0.704102
 C         4.158804         0.188644         2.047585
 O         2.944132        -0.455411         2.444294
 C         2.364415        -0.867320         1.145671
 H        -0.460323         0.751647         0.873390
 H        -0.506879         0.539780        -0.837392
 H        -0.743407        -0.851676         0.015618
 H         2.483297         1.796281        -0.697478
 H         2.383015         1.622319         1.013629
 H         2.328234         0.083133        -2.125922
 H         1.918166        -1.705607        -1.339401
 H         4.904200        -0.146336         2.741907
 H         4.103069         1.296567         2.158524
 H         2.290865        -2.001331         1.187463
