19
Iteration:  1100
 C        -0.156621         0.158675         0.135624
 C         1.360857        -0.096592         0.131844
 C         2.260164         1.083896         0.099971
 C         3.242258        -0.127718         0.106411
 C         2.454512        -0.802380        -0.951201
 O         4.559518         0.046202         0.617844
 C         4.344555        -0.304974         2.084957
 O         2.798075        -0.394444         2.349546
 C         2.305079        -0.839744         1.087771
 H        -0.327494         1.083376         0.922331
 H        -0.623059         0.722010        -0.767797
 H        -0.696770        -0.756145         0.339493
 H         2.242404         1.693546        -0.867649
 H         2.321058         1.722545         0.962338
 H         2.474847        -0.462029        -2.107286
 H         2.346435        -1.982806        -0.943473
 H         4.935866        -1.263227         2.051977
 H         4.570685         0.521345         2.801695
 H         2.219705        -1.903107         0.998924
