19
Iteration:  2618charge 0 multiplicity 1
 C        -0.071956         0.035360         0.044162
 C         1.354117        -0.121499         0.111760
 C         2.476681         1.145607         0.114345
 C         3.237014        -0.131253         0.158110
 C         2.354829        -0.801981        -1.002377
 O         4.508251        -0.123732         0.664371
 C         4.221839        -0.176903         2.084828
 O         2.792100        -0.263921         2.336065
 C         2.290622        -0.831722         1.122363
 H        -0.395323         0.351329         1.000846
 H        -0.455415         0.605806        -0.830844
 H        -0.511438        -0.933726        -0.025370
 H         2.489238         1.803974        -0.780887
 H         2.344280         1.796548         1.013827
 H         2.304400        -0.220861        -1.948883
 H         2.487897        -1.943799        -1.101144
 H         4.850683        -0.947442         2.621530
 H         4.422465         0.890305         2.452110
 H         2.211818        -1.954496         1.205834
