19
Iteration:   732
 C        -0.121033        -0.174270         0.096142
 C         1.359802         0.010829         0.148748
 C         2.387723         1.182749         0.160327
 C         3.226533        -0.130822         0.100313
 C         2.354231        -0.750920        -1.081721
 O         4.514356        -0.208912         0.637410
 C         4.248808        -0.386981         2.072714
 O         2.861474        -0.088248         2.349207
 C         2.293901        -0.600267         1.156724
 H        -0.511155         0.326032         1.011623
 H        -0.503496         0.071512        -0.849957
 H        -0.309692        -1.350834         0.062330
 H         2.402781         2.049696        -0.683963
 H         2.381928         1.659192         1.154967
 H         2.436568        -0.255072        -2.107464
 H         2.390231        -1.794274        -1.084080
 H         4.255435        -1.491809         2.194106
 H         5.069058         0.188983         2.588261
 H         2.287517        -1.781994         1.301571
