19
Iteration:  3062charge 0 multiplicity 1
 C        -0.250920        -0.068003        -0.022342
 C         1.359751        -0.061738         0.084095
 C         2.388278         1.168152         0.050895
 C         3.281743        -0.162743         0.132170
 C         2.341645        -0.762987        -1.062020
 O         4.539834        -0.059399         0.731642
 C         4.300489        -0.328023         2.192828
 O         2.863936        -0.237035         2.383810
 C         2.332499        -0.734903         1.110459
 H        -0.449471         0.715288         0.768858
 H        -0.454198         0.222502        -1.107450
 H        -0.595263        -1.032518         0.345776
 H         2.462935         1.781730        -0.848519
 H         2.274935         1.841010         0.930491
 H         2.346534        -0.335368        -2.063657
 H         2.244001        -1.909210        -0.962135
 H         4.850438        -1.201573         2.543074
 H         4.618670         0.576928         2.718782
 H         2.115129        -1.850578         1.209025
