19
Iteration:  2800charge 0 multiplicity 1
 C        -0.049956        -0.023973        -0.003989
 C         1.400412        -0.087758         0.040488
 C         2.371922         1.109676         0.130986
 C         3.196861        -0.214528         0.082475
 C         2.281124        -0.644051        -1.069439
 O         4.518828        -0.223028         0.671455
 C         4.292100        -0.039091         2.159925
 O         2.764446        -0.285148         2.406039
 C         2.361807        -0.874976         1.199463
 H        -0.508580         0.434674         0.962375
 H        -0.260697         0.769147        -0.834194
 H        -0.631837        -0.922543        -0.216658
 H         2.662768         1.658949        -0.815710
 H         2.375531         1.702987         1.092766
 H         2.395428        -0.080791        -2.032403
 H         2.374276        -1.712898        -1.200961
 H         4.985517        -0.745041         2.673334
 H         4.397664         1.032583         2.424744
 H         2.335350        -2.059583         1.442083
