19
Iteration:  4049
 C        -0.087407        -0.168316         0.055193
 C         1.377415        -0.020633        -0.013361
 C         2.370964         1.135204         0.075808
 C         3.311847        -0.092308         0.112612
 C         2.364573        -0.762559        -0.963096
 O         4.525738        -0.098170         0.683902
 C         4.200157        -0.387456         2.180262
 O         2.813058        -0.094530         2.346664
 C         2.310317        -0.713811         1.093567
 H        -0.346423         0.048668         1.083810
 H        -0.732137         0.521021        -0.536256
 H        -0.487839        -1.127051        -0.098136
 H         2.396164         1.780014        -0.842820
 H         2.384682         1.894554         0.873909
 H         2.576586        -0.355661        -1.869618
 H         2.225825        -1.827176        -0.971816
 H         4.300000        -1.406738         2.526749
 H         4.830710         0.201377         2.940046
 H         2.172847        -1.856773         1.121604
