19
Iteration:  1395charge 0 multiplicity 1
 C        -0.144652         0.085323         0.135495
 C         1.295222        -0.024385         0.099058
 C         2.338967         1.107528        -0.007379
 C         3.266833        -0.167850         0.122079
 C         2.442081        -0.828850        -1.006252
 O         4.568923         0.001828         0.667407
 C         4.215744        -0.340973         2.105784
 O         2.906536        -0.302131         2.373391
 C         2.230715        -0.751312         1.139132
 H        -0.417241         0.597921         1.090008
 H        -0.486123         0.609217        -0.716092
 H        -0.596345        -0.826551         0.275549
 H         2.529856         1.672011        -0.963137
 H         2.169203         1.839619         0.919541
 H         2.508142        -0.556832        -2.086061
 H         2.476303        -1.896936        -1.035587
 H         4.613929        -1.376317         2.009496
 H         4.757236         0.354368         2.725895
 H         2.014581        -1.901056         1.286204
