19
Iteration:  2526charge 0 multiplicity 1
 C        -0.125703        -0.042299        -0.013147
 C         1.426547        -0.027662         0.052513
 C         2.408525         1.180789         0.103854
 C         3.171112        -0.185041         0.138519
 C         2.298507        -0.765270        -0.957349
 O         4.506447        -0.194358         0.701413
 C         4.342517        -0.177635         2.091137
 O         2.881985        -0.250543         2.386199
 C         2.268697        -0.796439         1.114188
 H        -0.647264         0.464994         0.836527
 H        -0.503859         0.416040        -0.886779
 H        -0.527238        -1.003346        -0.079310
 H         2.200410         1.828732        -0.809327
 H         2.284855         1.713674         1.045241
 H         2.604550        -0.161643        -1.806336
 H         2.076339        -1.808573        -1.087416
 H         4.813629        -0.924043         2.707651
 H         4.710115         0.861433         2.388988
 H         2.208107        -1.851159         1.147040
