19
Iteration:  3565
 C        -0.141162         0.038804         0.030195
 C         1.345686        -0.089838         0.068944
 C         2.352592         1.068526         0.094471
 C         3.291593        -0.140276         0.139682
 C         2.373488        -0.794639        -1.030017
 O         4.549863        -0.191625         0.736562
 C         4.233101         0.027156         2.097092
 O         2.800776        -0.390758         2.380659
 C         2.326665        -0.807701         1.108445
 H        -0.367366         0.679894         0.905186
 H        -0.543843         0.771714        -0.720638
 H        -0.616731        -0.880685        -0.069598
 H         2.601457         1.798926        -0.687254
 H         2.377615         1.494281         1.097342
 H         2.405895        -0.303554        -2.056799
 H         2.346596        -1.854730        -1.197059
 H         4.988960        -0.523548         2.663568
 H         4.371111         1.042550         2.343509
 H         2.354028        -1.883786         0.957070
