19
Iteration:  4398charge 0 multiplicity 1
 C        -0.098227        -0.018337         0.017606
 C         1.437495         0.012242         0.063600
 C         2.433097         1.165847         0.080768
 C         3.227733        -0.157871         0.144879
 C         2.438562        -0.757369        -0.968784
 O         4.512757        -0.300475         0.652360
 C         4.137709         0.035052         2.045493
 O         2.802309        -0.357247         2.390229
 C         2.303105        -0.868317         1.153406
 H        -0.382945         0.083369         1.108854
 H        -0.484640         0.921305        -0.419499
 H        -0.506646        -0.980832        -0.236300
 H         2.419182         1.877547        -0.721715
 H         2.510978         1.812956         0.996063
 H         2.369620        -0.290290        -2.009949
 H         2.423142        -1.939069        -0.888647
 H         4.859662        -0.409684         2.789223
 H         4.024029         1.106152         2.264190
 H         2.088067        -1.945944         1.202279
