19
Iteration:  3818
 C        -0.173865        -0.109652        -0.039354
 C         1.344992        -0.048657         0.019219
 C         2.369898         1.150064         0.166339
 C         3.250069        -0.136073         0.202594
 C         2.406907        -0.739713        -0.996628
 O         4.549668        -0.235345         0.695258
 C         4.325408        -0.155625         2.057955
 O         2.824621        -0.229110         2.373894
 C         2.250769        -0.743259         1.190987
 H        -0.639974         0.629613         0.695655
 H        -0.397444         0.163652        -1.082257
 H        -0.572478        -1.063437         0.059581
 H         2.599242         1.806358        -0.720942
 H         2.271404         1.643024         1.161149
 H         2.257717        -0.091411        -1.902081
 H         2.386618        -1.746567        -1.487864
 H         4.986820        -0.827732         2.622108
 H         4.672664         0.805240         2.460984
 H         2.070522        -1.837377         1.092171
