19
Iteration:  1719charge 0 multiplicity 1
 C        -0.070817        -0.083414         0.100449
 C         1.412563        -0.016193         0.032482
 C         2.257242         1.250739        -0.063529
 C         3.230700        -0.103195         0.165362
 C         2.397754        -0.718894        -0.947237
 O         4.542672        -0.282475         0.653347
 C         4.242122        -0.411004         2.103851
 O         2.858428        -0.163108         2.387962
 C         2.302386        -0.623613         1.188983
 H        -0.413558         0.438658         1.020044
 H        -0.593052         0.151284        -0.806708
 H        -0.373735        -1.098420         0.317980
 H         2.279585         1.782903        -0.988378
 H         2.256859         1.984745         0.800021
 H         2.383317        -0.367999        -1.976245
 H         2.326498        -1.779031        -0.993116
 H         4.425068        -1.500178         2.300361
 H         4.805545         0.330735         2.773233
 H         2.139498        -1.682493         1.140560
