19
Iteration:  2775
 C        -0.155299         0.041449         0.037518
 C         1.351929        -0.074268         0.070657
 C         2.352483         1.095328         0.155336
 C         3.285280        -0.188622         0.100183
 C         2.400330        -0.768288        -0.965141
 O         4.563271        -0.158226         0.713966
 C         4.232329        -0.092774         2.137749
 O         2.816852        -0.347441         2.319224
 C         2.310245        -0.777582         1.056302
 H        -0.536815         0.651283         0.869295
 H        -0.389208         0.593294        -0.816179
 H        -0.719472        -0.876049         0.041301
 H         2.427982         1.611972        -0.781370
 H         2.420085         1.725295         0.987179
 H         2.509598        -0.229454        -1.987095
 H         2.304660        -1.845899        -1.082056
 H         4.971271        -0.742763         2.714244
 H         4.281880         0.951140         2.393053
 H         2.235333        -1.919644         1.232363
