19
Iteration:  1663
 C        -0.122757         0.058580        -0.055247
 C         1.310820        -0.122764         0.125290
 C         2.364700         1.108016         0.099574
 C         3.219753        -0.177941         0.198812
 C         2.333592        -0.800623        -0.972014
 O         4.548890        -0.075867         0.573364
 C         4.353699        -0.333573         2.086486
 O         2.832886        -0.158244         2.424214
 C         2.302431        -0.757965         1.197278
 H        -0.569168         0.596181         0.763277
 H        -0.445261         0.647588        -0.918944
 H        -0.520683        -0.955353        -0.257959
 H         2.295397         1.670019        -0.857044
 H         2.405632         1.875527         0.954027
 H         2.329842        -0.328357        -1.952870
 H         2.274430        -1.901683        -0.915924
 H         4.721068        -1.373588         2.314875
 H         5.046229         0.359630         2.727640
 H         2.121050        -1.865102         1.235380
