19
Iteration:  2214
 C        -0.169696         0.130142        -0.009004
 C         1.363687        -0.045940         0.084349
 C         2.384672         1.057177         0.065438
 C         3.334067        -0.191021         0.044050
 C         2.267684        -0.788642        -0.955285
 O         4.560812        -0.152838         0.654901
 C         4.267205        -0.044229         2.109663
 O         2.855747        -0.427829         2.457108
 C         2.299989        -0.830505         1.163667
 H        -0.466113         0.786632         0.737405
 H        -0.352548         0.639379        -0.974845
 H        -0.750257        -0.761168         0.193015
 H         2.307363         1.759455        -0.846579
 H         2.452636         1.667390         1.001847
 H         2.194849        -0.304585        -1.961620
 H         2.138672        -1.857584        -0.959596
 H         5.078402        -0.559400         2.678159
 H         4.471507         1.038838         2.349678
 H         2.206228        -1.915821         1.171323
