19
Iteration:  1927charge 0 multiplicity 1
 C        -0.131217         0.133531         0.077432
 C         1.360107        -0.103600         0.078922
 C         2.370324         1.143967         0.062774
 C         3.262110        -0.132448         0.057542
 C         2.207624        -0.859207        -0.988387
 O         4.605042        -0.158939         0.672939
 C         4.275492        -0.141233         2.186146
 O         2.835713        -0.363507         2.385798
 C         2.327859        -0.776976         1.103608
 H        -0.406838         0.837568         0.938883
 H        -0.343524         0.469530        -0.940673
 H        -0.670012        -0.806197         0.159084
 H         2.486788         1.754770        -0.927177
 H         2.678932         1.857099         0.934729
 H         2.281304        -0.453988        -2.005604
 H         2.133231        -1.962207        -0.999990
 H         4.881062        -0.856104         2.739316
 H         4.428334         0.893137         2.407831
 H         2.324774        -1.891166         1.032409
