19
Iteration:  2733charge 0 multiplicity 1
 C        -0.122937        -0.065119         0.013039
 C         1.410285        -0.044708         0.121232
 C         2.329042         1.112104         0.002597
 C         3.212849        -0.187156         0.153425
 C         2.388775        -0.632203        -1.021773
 O         4.563230        -0.231822         0.677207
 C         4.250732        -0.082336         2.179047
 O         2.833715        -0.360571         2.369762
 C         2.292471        -0.738528         1.134802
 H        -0.466925         0.734377         0.792031
 H        -0.370533         0.266536        -1.002362
 H        -0.723362        -0.958459         0.256063
 H         2.452579         1.766990        -0.857892
 H         2.319599         1.622107         0.956540
 H         2.462377        -0.090181        -2.009050
 H         2.400532        -1.682998        -1.071982
 H         4.819371        -0.912087         2.630825
 H         4.611088         0.861440         2.545620
 H         1.925195        -1.823016         1.234165
