19
Iteration:   857charge 0 multiplicity 1
 C        -0.160748        -0.100580         0.006221
 C         1.336144         0.030273         0.115903
 C         2.327844         1.189688         0.152528
 C         3.226139        -0.225805         0.152415
 C         2.313503        -0.587870        -1.011460
 O         4.588074        -0.378961         0.657608
 C         4.386021        -0.055250         2.041973
 O         2.875280        -0.272643         2.375135
 C         2.269271        -0.808489         1.136308
 H        -0.488906         0.154176         0.998679
 H        -0.613147         0.676623        -0.654487
 H        -0.520160        -1.049193        -0.132386
 H         2.183888         1.641300        -0.777259
 H         2.204701         1.873065         1.018034
 H         2.497124         0.079036        -1.850695
 H         2.252930        -1.725117        -1.340768
 H         5.025304        -0.817446         2.509811
 H         4.585595         0.924117         2.481025
 H         1.999682        -1.984228         1.310572
