19
Iteration:  3848
 C        -0.097693         0.064882         0.033108
 C         1.387982        -0.083597         0.054891
 C         2.303462         1.133503         0.120424
 C         3.246908        -0.095052         0.135936
 C         2.383701        -0.814955        -1.009289
 O         4.558481        -0.192576         0.695051
 C         4.283166        -0.048920         2.087856
 O         2.785922        -0.322796         2.396637
 C         2.345843        -0.891503         1.132526
 H        -0.616785         0.516271         0.870992
 H        -0.267311         0.716153        -0.775782
 H        -0.585082        -0.851596        -0.334737
 H         2.448202         1.570968        -0.879260
 H         2.120879         1.778110         1.000594
 H         2.193786        -0.385288        -2.033864
 H         2.302624        -1.823747        -1.183876
 H         4.865776        -0.772874         2.769270
 H         4.266193         1.024204         2.473914
 H         2.437548        -2.045906         1.177621
