19
Iteration:   867
 C        -0.157724        -0.128686         0.079339
 C         1.348782         0.058015         0.123330
 C         2.347031         1.231752         0.215775
 C         3.234812        -0.218436         0.136761
 C         2.344031        -0.638925        -1.087649
 O         4.564525        -0.400491         0.659650
 C         4.326407        -0.063077         2.015164
 O         2.859815        -0.324590         2.345677
 C         2.271086        -0.701428         1.161907
 H        -0.657187         0.023583         0.988775
 H        -0.749321         0.497528        -0.657932
 H        -0.287413        -1.152316        -0.242909
 H         2.528737         1.804137        -0.687628
 H         2.602055         1.901874         1.095413
 H         2.448749        -0.100241        -2.013655
 H         2.290674        -1.787803        -1.270047
 H         5.011028        -0.593255         2.710112
 H         4.418555         1.028196         2.156975
 H         1.946737        -1.841838         1.313983
