19
Iteration:  2206
 C        -0.165726         0.147842         0.025188
 C         1.358365        -0.064998         0.156016
 C         2.397764         1.076569         0.125048
 C         3.257098        -0.170916         0.082945
 C         2.257174        -0.828366        -1.020656
 O         4.600285        -0.159805         0.638166
 C         4.290761        -0.005296         2.150829
 O         2.872257        -0.404414         2.372920
 C         2.282232        -0.859127         1.150823
 H        -0.614014         0.859107         0.700564
 H        -0.297801         0.501838        -1.001763
 H        -0.739825        -0.804535        -0.081914
 H         2.525020         1.682163        -0.841402
 H         2.498130         1.723256         1.079522
 H         2.420446        -0.446152        -2.056132
 H         2.330468        -1.943637        -1.044758
 H         4.905285        -0.661217         2.658705
 H         4.358803         1.100882         2.362789
 H         1.838986        -1.883616         1.221435
