19
Iteration:  2751
 C        -0.118937         0.049127         0.032470
 C         1.420952        -0.068868        -0.061116
 C         2.351590         1.205698         0.126161
 C         3.223308        -0.088514         0.157999
 C         2.387279        -0.826112        -1.011603
 O         4.519821        -0.202893         0.715138
 C         4.240630        -0.114765         2.085873
 O         2.828196        -0.369185         2.444820
 C         2.311496        -0.801693         1.101032
 H        -0.457569         0.654323         0.796477
 H        -0.662281         0.376195        -0.809121
 H        -0.384651        -0.986137         0.289918
 H         2.346596         1.737044        -0.796070
 H         2.231864         1.820326         1.005121
 H         2.398478        -0.307228        -1.973771
 H         2.270889        -1.951906        -1.157617
 H         4.930914        -0.868118         2.585264
 H         4.405769         0.939453         2.387390
 H         2.469963        -1.866137         1.158766
