19
Iteration:  1299
 C        -0.108297        -0.088365         0.043007
 C         1.354807         0.112835         0.115633
 C         2.308810         1.245043         0.139403
 C         3.264201        -0.164745         0.114990
 C         2.326801        -0.630293        -1.013892
 O         4.554215        -0.460887         0.646045
 C         4.264148        -0.091637         2.078701
 O         2.891362        -0.357974         2.370434
 C         2.300887        -0.709211         1.137370
 H        -0.543231         0.385291         0.999497
 H        -0.571694         0.313826        -0.867673
 H        -0.370049        -1.217915         0.284347
 H         2.237388         1.804613        -0.732085
 H         2.250754         1.701265         1.150918
 H         2.354121        -0.142906        -2.035786
 H         2.461960        -1.715420        -1.182716
 H         4.941617        -0.752841         2.629929
 H         4.479608         1.023821         2.302980
 H         2.011600        -1.732946         1.017155
