19
Iteration:   868
 C        -0.159676        -0.132533         0.086096
 C         1.353549         0.057334         0.122983
 C         2.353475         1.234107         0.215619
 C         3.232547        -0.214036         0.132078
 C         2.349850        -0.639814        -1.087478
 O         4.559339        -0.400749         0.658873
 C         4.318314        -0.063856         2.018274
 O         2.861959        -0.327539         2.345574
 C         2.271107        -0.692960         1.164780
 H        -0.668358        -0.001056         1.012600
 H        -0.735145         0.467041        -0.678684
 H        -0.267412        -1.107497        -0.244822
 H         2.570041         1.827840        -0.641304
 H         2.612444         1.870200         1.087080
 H         2.431487        -0.109444        -2.037283
 H         2.274721        -1.813241        -1.257123
 H         4.977144        -0.587386         2.711541
 H         4.406943         1.043348         2.084617
 H         1.942580        -1.866604         1.278384
