19
Iteration:   281
 C        -0.177667        -0.114191         0.092827
 C         1.365211         0.046786         0.078864
 C         2.318828         1.275254        -0.043303
 C         3.232145        -0.093793         0.119195
 C         2.377779        -0.769528        -0.982946
 O         4.532362        -0.082794         0.718829
 C         4.258774        -0.501125         2.123548
 O         2.886172        -0.178614         2.353508
 C         2.359648        -0.734630         1.142084
 H        -0.674992         0.655910         0.784696
 H        -0.747078        -0.107778        -0.908187
 H        -0.267423        -1.059175         0.599368
 H         2.475908         1.715619        -1.033838
 H         2.278075         1.943750         0.755365
 H         2.398126        -0.434292        -1.959932
 H         2.341511        -1.857469        -0.802577
 H         4.482258        -1.635286         2.204892
 H         4.784384         0.121488         2.828740
 H         2.332229        -1.793775         1.223608
