19
Iteration:    63
 C        -0.051741        -0.143503        -0.016427
 C         1.373322        -0.006781         0.072271
 C         2.341333         1.240641         0.038588
 C         3.224910        -0.026690         0.127403
 C         2.238441        -0.780296        -0.851156
 O         4.577193        -0.052896         0.590797
 C         4.226429        -0.562366         2.106101
 O         2.882100        -0.144710         2.395000
 C         2.331983        -0.664786         1.195052
 H        -0.705995         0.283680         0.907523
 H        -0.398232         0.299804        -0.948346
 H        -0.318946        -1.196023        -0.010837
 H         2.351534         1.694627        -0.980350
 H         2.359768         1.796683         0.937842
 H         2.200494        -0.387001        -1.827959
 H         2.347139        -1.895093        -0.772009
 H         4.284835        -1.696646         2.151931
 H         4.883957         0.073274         2.718060
 H         2.347711        -1.810830         1.203072
