19
Iteration:  3096
 C        -0.064229        -0.140771         0.046152
 C         1.423093        -0.054910         0.093632
 C         2.336698         1.251193         0.127605
 C         3.249669        -0.107333         0.107112
 C         2.454538        -0.704279        -1.048305
 O         4.436713        -0.245607         0.649719
 C         4.216545        -0.281310         2.147795
 O         2.801814        -0.157445         2.382249
 C         2.342326        -0.768943         1.159642
 H        -0.589650         0.556661         0.697304
 H        -0.604316         0.154422        -0.873581
 H        -0.581645        -0.994607         0.233579
 H         2.449098         1.781836        -0.851111
 H         2.239584         1.940557         0.961091
 H         2.494461        -0.339705        -2.034530
 H         2.413948        -1.891768        -1.047880
 H         4.721860        -1.170329         2.469759
 H         4.692569         0.635261         2.476933
 H         2.356119        -1.886343         1.069664
