19
Iteration:  1592charge 0 multiplicity 1
 C        -0.046471        -0.038388         0.148611
 C         1.420399         0.039132         0.044959
 C         2.467317         1.097390         0.172459
 C         3.217714        -0.216209         0.088992
 C         2.299738        -0.676926        -1.006598
 O         4.489538        -0.403207         0.635296
 C         4.164560         0.106630         2.157100
 O         2.876886        -0.328409         2.311465
 C         2.242502        -0.808369         1.098786
 H        -0.508340         0.649103         0.937219
 H        -0.570986         0.369878        -0.757266
 H        -0.313161        -1.095092         0.184605
 H         2.669443         1.658769        -0.795617
 H         2.782220         1.724468         1.018283
 H         2.368348        -0.085449        -1.970856
 H         2.107157        -1.754404        -1.017211
 H         4.787177        -0.488143         2.816174
 H         4.391438         1.126766         2.237171
 H         2.146954        -1.793865         0.959083
