19
Iteration:  3046
 C        -0.070322         0.016051        -0.002766
 C         1.371180        -0.053379         0.040464
 C         2.363624         1.115751         0.050557
 C         3.217402        -0.079500         0.122241
 C         2.322471        -0.809727        -0.924079
 O         4.520566        -0.053043         0.719374
 C         4.227878        -0.235931         2.103177
 O         2.842527        -0.265762         2.404998
 C         2.347705        -0.843841         1.161832
 H        -0.750482         0.579932         0.565814
 H        -0.445334         0.244752        -0.968937
 H        -0.585918        -0.974307         0.004781
 H         2.389671         1.727671        -0.879371
 H         2.547549         1.781687         0.884770
 H         2.368515        -0.266932        -1.905196
 H         2.328109        -1.833153        -1.030070
 H         4.484465        -1.295622         2.194894
 H         4.889539         0.376500         2.710765
 H         2.518055        -1.888217         1.036580
