19
Iteration:  1952
 C        -0.108299         0.067431         0.087114
 C         1.381584        -0.034359         0.086782
 C         2.411825         1.095485         0.011938
 C         3.270484        -0.218655         0.146054
 C         2.234352        -0.770018        -0.984971
 O         4.489286        -0.114273         0.680128
 C         4.308390        -0.213421         2.123568
 O         2.832086        -0.238673         2.355990
 C         2.331105        -0.820953         1.155805
 H        -0.524434         0.449520         1.035065
 H        -0.380343         0.601441        -0.862721
 H        -0.456750        -0.976810        -0.089535
 H         2.544037         1.653790        -0.973923
 H         2.412456         1.781767         0.857770
 H         2.284498        -0.210736        -1.912399
 H         2.249978        -1.865197        -1.166242
 H         4.714862        -1.229531         2.528337
 H         4.776412         0.707082         2.523069
 H         2.195852        -1.870443         1.183424
