19
Iteration:  4851charge 0 multiplicity 1
 C        -0.167993        -0.003579         0.038060
 C         1.347945        -0.114925        -0.014675
 C         2.268378         1.106730         0.105011
 C         3.294084        -0.179184         0.146887
 C         2.370527        -0.700494        -1.028550
 O         4.587815        -0.155652         0.653933
 C         4.243229        -0.221820         2.198343
 O         2.846953        -0.203046         2.395168
 C         2.363287        -0.789425         1.140379
 H        -0.471279         0.952707         0.672736
 H        -0.382178         0.151458        -1.095169
 H        -0.928334        -0.882569         0.240893
 H         2.406654         1.562303        -0.859185
 H         2.202462         1.879868         0.883220
 H         2.362461        -0.053132        -1.981401
 H         2.487974        -1.731348        -1.039169
 H         4.720401        -1.283804         2.439061
 H         4.722258         0.628072         2.904287
 H         2.206726        -1.993572         1.238079
