19
Iteration:  2843charge 0 multiplicity 1
 C        -0.100929        -0.083774        -0.033514
 C         1.378431        -0.030855         0.100897
 C         2.339423         1.222709         0.155999
 C         3.254438        -0.115671         0.173331
 C         2.418761        -0.750504        -1.024482
 O         4.532573        -0.323573         0.622872
 C         4.246793        -0.092921         2.114041
 O         2.801357        -0.334740         2.440162
 C         2.316129        -0.709064         1.131223
 H        -0.601370         0.265966         0.924033
 H        -0.406254         0.639918        -0.807427
 H        -0.459190        -1.073138        -0.234568
 H         2.303221         1.745782        -0.815535
 H         2.458947         1.915571         1.014858
 H         2.405053        -0.301457        -2.064585
 H         2.217853        -1.812579        -1.106959
 H         4.978147        -0.656328         2.763993
 H         4.271864         0.990812         2.185344
 H         2.167661        -1.811329         0.941226
