19
Iteration:  1016charge 0 multiplicity 1
 C        -0.087494        -0.163127         0.083471
 C         1.399993         0.001391         0.090797
 C         2.283960         1.302177         0.221509
 C         3.178795        -0.119002         0.126213
 C         2.331554        -0.686282        -1.010777
 O         4.513906        -0.323179         0.582142
 C         4.246060        -0.356373         2.047106
 O         2.953810        -0.116188         2.379057
 C         2.277086        -0.669639         1.130829
 H        -0.697212        -0.048664         0.921805
 H        -0.402105         0.254305        -0.814179
 H        -0.250450        -1.266488        -0.232730
 H         2.336327         1.955195        -0.632097
 H         2.359516         1.757740         1.212471
 H         2.481834        -0.140922        -1.952144
 H         2.542902        -1.718395        -1.025245
 H         4.572754        -1.374179         2.315647
 H         4.928164         0.398544         2.560288
 H         1.998951        -1.830993         1.209214
