19
Iteration:  4102charge 0 multiplicity 1
 C        -0.142531        -0.048361        -0.073258
 C         1.405703        -0.005073         0.038726
 C         2.361654         1.151241         0.162261
 C         3.186555        -0.158524         0.145260
 C         2.392694        -0.758591        -1.005418
 O         4.533998        -0.190645         0.644923
 C         4.259246        -0.152955         2.076063
 O         2.848479        -0.226659         2.431667
 C         2.288540        -0.829985         1.205788
 H        -0.601858         0.618223         0.846812
 H        -0.427506         0.285591        -1.118864
 H        -0.492525        -1.083434        -0.019368
 H         2.611016         1.791133        -0.718213
 H         2.172087         1.615313         1.153010
 H         2.478677        -0.409887        -2.063696
 H         2.399860        -1.809084        -1.141544
 H         4.795111        -0.946353         2.623694
 H         4.522183         0.808709         2.591801
 H         2.314017        -1.906922         1.242740
