19
Iteration:  3927charge 0 multiplicity 1
 C        -0.135185        -0.086128        -0.001182
 C         1.368589         0.001573         0.079816
 C         2.347937         1.188593         0.176940
 C         3.242885        -0.175758         0.145401
 C         2.365376        -0.715340        -1.045332
 O         4.559067        -0.411764         0.724112
 C         4.214847         0.066148         2.048136
 O         2.836294        -0.294702         2.334269
 C         2.382294        -0.820022         1.116738
 H        -0.610703         0.489139         0.863118
 H        -0.458750         0.413484        -0.844161
 H        -0.527668        -1.036248         0.038935
 H         2.424327         2.054259        -0.544728
 H         2.278299         1.642597         1.190516
 H         2.517244         0.000597        -1.851678
 H         2.397199        -1.750117        -1.230577
 H         4.679179        -0.612136         2.844918
 H         4.224733         1.187843         2.295359
 H         2.227025        -1.949995         1.268171
