19
Iteration:   930
 C        -0.209505         0.163122         0.141232
 C         1.335707        -0.156124         0.084223
 C         2.311371         1.066703         0.148358
 C         3.266922        -0.203671         0.106085
 C         2.371716        -0.719184        -1.083880
 O         4.526891        -0.169144         0.635811
 C         4.258475        -0.054791         2.135609
 O         2.901934        -0.391890         2.351404
 C         2.378496        -0.857159         1.081357
 H        -0.385342         0.844018         0.976344
 H        -0.538277         0.752076        -0.752369
 H        -0.868536        -0.792637         0.458770
 H         2.355860         1.607306        -0.825052
 H         2.508210         1.739838         1.041252
 H         2.343997        -0.098364        -1.950657
 H         2.376120        -1.737317        -1.319115
 H         4.955054        -0.673936         2.833690
 H         4.468978         0.979984         2.474458
 H         2.280204        -1.866441         1.120340
