19
Iteration:  3355charge 0 multiplicity 1
 C        -0.154697        -0.164671        -0.007683
 C         1.420635        -0.048112         0.096792
 C         2.339316         1.256029         0.018062
 C         3.271004        -0.104137         0.141489
 C         2.383778        -0.748305        -0.969801
 O         4.541766        -0.162627         0.668490
 C         4.265532        -0.343740         2.128198
 O         2.830650        -0.146506         2.371211
 C         2.278283        -0.762508         1.190055
 H        -0.610446         0.225246         0.883046
 H        -0.571046         0.578701        -0.708413
 H        -0.402257        -1.083951        -0.366140
 H         2.355437         1.771426        -0.962345
 H         2.127041         1.939501         0.848086
 H         2.422522        -0.151633        -1.851749
 H         2.288148        -1.858085        -1.148169
 H         4.624889        -1.396485         2.295811
 H         4.891515         0.399670         2.781530
 H         2.185432        -1.829271         1.642004
