19
Iteration:   268charge 0 multiplicity 1
 C        -0.158598        -0.072984         0.165184
 C         1.364275        -0.076513         0.107867
 C         2.325101         1.202771         0.001462
 C         3.274084        -0.039161         0.109494
 C         2.410508        -0.804151        -0.932997
 O         4.546817        -0.087847         0.701587
 C         4.239516        -0.411670         2.108470
 O         2.853990        -0.251779         2.339795
 C         2.298075        -0.643371         1.092234
 H        -0.453754         0.778155         0.713676
 H        -0.407854         0.167902        -0.996818
 H        -0.784488        -0.942564         0.318996
 H         2.214279         1.795902        -1.049666
 H         2.430038         1.943068         0.810336
 H         2.426890        -0.458485        -1.995786
 H         2.449060        -1.999937        -1.019605
 H         4.496071        -1.478260         2.229181
 H         4.904868         0.187023         2.705504
 H         2.191863        -1.752146         1.020518
