19
Iteration:  1032charge 0 multiplicity 1
 C        -0.156208        -0.203646         0.057433
 C         1.370392         0.018313         0.163017
 C         2.346328         1.203984         0.195426
 C         3.239349        -0.037198         0.134108
 C         2.434304        -0.651601        -0.958654
 O         4.500086        -0.286790         0.567087
 C         4.313746        -0.430199         2.020079
 O         2.829006        -0.083991         2.303016
 C         2.301380        -0.695356         1.150294
 H        -0.469088         0.220640         1.084836
 H        -0.772538         0.486959        -0.642953
 H        -0.412385        -1.265946        -0.096364
 H         2.343185         1.878239        -0.702814
 H         2.347120         1.722865         1.176001
 H         2.401405        -0.237458        -1.979861
 H         2.273716        -1.776907        -0.949645
 H         4.417547        -1.499219         2.333581
 H         4.831966         0.320423         2.634517
 H         2.496533        -1.702770         1.287189
