19
Iteration:  4661
 C        -0.095859        -0.090087         0.010385
 C         1.394796        -0.013479         0.066152
 C         2.300518         1.213362         0.181851
 C         3.231493        -0.175555         0.143743
 C         2.417296        -0.712854        -1.088596
 O         4.527752        -0.330384         0.650482
 C         4.273717        -0.105061         2.134776
 O         2.824633        -0.181558         2.409288
 C         2.283276        -0.803417         1.129705
 H        -0.529869         0.581203         0.739155
 H        -0.444384         0.117735        -1.070591
 H        -0.487449        -1.070889        -0.030719
 H         2.305005         1.777151        -0.685525
 H         2.248199         1.745771         1.078702
 H         2.414169        -0.154403        -1.906481
 H         2.547066        -1.784557        -1.150444
 H         4.821734        -1.010640         2.609288
 H         4.784619         0.794075         2.427809
 H         1.953592        -1.902157         1.311458
