19
Iteration:  4696charge 0 multiplicity 1
 C        -0.174644        -0.038802         0.021083
 C         1.425477        -0.017534         0.070312
 C         2.423693         1.166821         0.073550
 C         3.303415        -0.146627         0.152343
 C         2.301548        -0.722454        -1.067290
 O         4.588308        -0.236521         0.694886
 C         4.271718         0.000169         2.115240
 O         2.767749        -0.410817         2.447406
 C         2.303241        -0.801697         1.096475
 H        -0.683433         0.683105         0.624996
 H        -0.506092         0.259048        -1.026111
 H        -0.475901        -0.984979         0.509999
 H         2.405342         1.673726        -0.826792
 H         2.487363         1.780974         0.990103
 H         2.196828        -0.307673        -2.001391
 H         2.382314        -1.780910        -1.223385
 H         4.822091        -0.719381         2.724038
 H         4.280938         1.054524         2.457677
 H         2.058516        -1.928876         1.169486
