19
Iteration:  3606charge 0 multiplicity 1
 C        -0.137564         0.014373        -0.007393
 C         1.384297        -0.105616         0.084943
 C         2.388952         1.097712         0.117230
 C         3.178293        -0.160025         0.117254
 C         2.408054        -0.711072        -1.026381
 O         4.570148        -0.157962         0.698070
 C         4.269302        -0.092144         2.046516
 O         2.785899        -0.377735         2.432791
 C         2.335746        -0.760352         1.173841
 H        -0.683187         0.868368         0.493001
 H        -0.423820         0.090832        -1.107100
 H        -0.770150        -0.944318         0.329277
 H         2.439661         1.715858        -0.811003
 H         2.340688         1.678431         1.055337
 H         2.484145        -0.159688        -1.978579
 H         2.289257        -1.794300        -1.209506
 H         4.841172        -0.779806         2.690984
 H         4.403893         0.982896         2.357912
 H         2.372626        -1.830026         1.231900
