19
Iteration:  2223
 C        -0.102050         0.123569        -0.026940
 C         1.373070        -0.080327         0.047850
 C         2.378800         1.121497         0.013636
 C         3.208100        -0.199907         0.155260
 C         2.288450        -0.776955        -0.928290
 O         4.533176        -0.196515         0.685666
 C         4.228859        -0.045527         2.045449
 O         2.893271        -0.433492         2.478654
 C         2.382021        -0.768493         1.136238
 H        -0.253551         0.833516         0.855994
 H        -0.665365         0.571856        -0.895105
 H        -0.619679        -0.801660         0.220260
 H         2.311021         1.708221        -0.896235
 H         2.327285         1.715643         0.879128
 H         2.104610        -0.261470        -1.873532
 H         2.035536        -1.811068        -1.053310
 H         4.934217        -0.857077         2.563990
 H         4.234504         0.979437         2.411135
 H         2.600282        -1.836259         1.057221
