19
Iteration:   549charge 0 multiplicity 1
 C        -0.164284        -0.055101         0.018344
 C         1.384500        -0.087053         0.150632
 C         2.327427         1.194834         0.048800
 C         3.261456        -0.010760         0.080727
 C         2.299936        -0.831348        -0.923348
 O         4.532249        -0.085379         0.646574
 C         4.253476        -0.448364         2.139396
 O         2.927599        -0.137679         2.395808
 C         2.340858        -0.697783         1.151912
 H        -0.704707         0.296971         0.880224
 H        -0.444370         0.566271        -0.970145
 H        -0.527039        -1.203050        -0.094155
 H         2.261532         1.632496        -0.969840
 H         2.315517         1.872278         0.837818
 H         2.255591        -0.550180        -2.050321
 H         2.411471        -1.895104        -0.998582
 H         4.231954        -1.584194         1.999174
 H         5.054840         0.091151         2.761186
 H         2.265967        -1.757936         1.149355
