19
Iteration:  4347
 C        -0.168018        -0.043972        -0.012700
 C         1.361364        -0.101991         0.089745
 C         2.337203         1.117539         0.110270
 C         3.277250        -0.128799         0.162388
 C         2.379098        -0.740270        -0.998584
 O         4.541492        -0.183445         0.660860
 C         4.236943        -0.254663         2.164992
 O         2.833630        -0.160006         2.344713
 C         2.355052        -0.741680         1.111054
 H        -0.609289         0.715531         0.571831
 H        -0.457227         0.194164        -1.077096
 H        -0.569344        -1.020767         0.382614
 H         2.395728         1.635865        -0.909942
 H         2.259121         1.750354         1.026005
 H         2.485273        -0.176451        -1.852848
 H         2.443452        -1.829175        -0.985788
 H         4.576648        -1.177348         2.593694
 H         4.678609         0.633379         2.692780
 H         2.362728        -1.843184         1.155996
