19
Iteration:  4563charge 0 multiplicity 1
 C        -0.127044        -0.039197         0.042309
 C         1.404212        -0.103868         0.100171
 C         2.253568         1.170591        -0.017212
 C         3.269893        -0.192548         0.116656
 C         2.393412        -0.790990        -0.999557
 O         4.549490        -0.081748         0.756960
 C         4.263919        -0.387630         2.139982
 O         2.812221        -0.134933         2.379999
 C         2.341217        -0.687844         1.106505
 H        -0.622985         0.434361         0.916016
 H        -0.521665         0.585073        -0.886409
 H        -0.563771        -1.046988         0.000242
 H         2.407274         1.887388        -0.773430
 H         2.282246         1.741013         0.840843
 H         2.470209        -0.242035        -1.878162
 H         2.586483        -1.893526        -1.193410
 H         4.577211        -1.422166         2.152158
 H         4.845082         0.263226         2.761085
 H         2.076774        -1.795982         1.220946
