19
Iteration:  1411charge 0 multiplicity 1
 C        -0.136947         0.035825         0.159846
 C         1.406776        -0.047119         0.080662
 C         2.393546         1.154462         0.017877
 C         3.205996        -0.145649         0.103937
 C         2.350294        -0.789676        -1.002741
 O         4.482978        -0.038642         0.762055
 C         4.330189        -0.437918         2.085718
 O         2.811096        -0.173389         2.292858
 C         2.351145        -0.775871         1.120770
 H        -0.447513         0.686613         0.964502
 H        -0.655018         0.280165        -0.835017
 H        -0.676863        -1.036774         0.296181
 H         2.261571         1.567405        -0.958124
 H         2.575382         1.761109         0.807432
 H         2.336059        -0.256045        -1.951042
 H         2.227739        -1.918733        -1.159469
 H         4.652342        -1.388156         2.487848
 H         4.840385         0.286851         2.771962
 H         2.283092        -1.850215         1.117829
