19
Iteration:   413charge 0 multiplicity 1
 C        -0.107380         0.062200         0.134737
 C         1.430826        -0.062490         0.098333
 C         2.402969         1.096901         0.127142
 C         3.296298        -0.229023         0.096381
 C         2.325349        -0.715433        -1.027403
 O         4.479519        -0.360360         0.728860
 C         4.159639         0.163105         2.019527
 O         2.863708        -0.426802         2.346811
 C         2.366321        -0.802155         1.085362
 H        -0.520993         0.588457         1.126549
 H        -0.331887         0.711865        -0.633271
 H        -0.670513        -0.829174         0.119458
 H         2.508270         1.787468        -0.726211
 H         2.334689         1.584734         1.143887
 H         2.226019        -0.164725        -1.961696
 H         2.044393        -1.807801        -1.075804
 H         4.875689        -0.155045         2.686213
 H         4.074202         1.227629         1.911767
 H         2.398535        -1.866984         1.002930
