19
Iteration:  2303charge 0 multiplicity 1
 C        -0.141947        -0.033657         0.072224
 C         1.368824        -0.018046         0.113459
 C         2.372292         1.150000         0.092249
 C         3.248347        -0.215420         0.102176
 C         2.305145        -0.709011        -1.020319
 O         4.590539        -0.291145         0.647971
 C         4.239461        -0.176602         2.120924
 O         2.821133        -0.179207         2.317053
 C         2.344081        -0.771414         1.218206
 H        -0.729581         0.304240         0.853138
 H        -0.361380         0.546883        -0.843118
 H        -0.451570        -1.067941        -0.238256
 H         2.339393         1.747538        -0.882793
 H         2.312789         1.727227         1.095640
 H         2.407177        -0.112078        -1.952393
 H         2.305393        -1.785698        -1.208750
 H         4.865307        -0.922462         2.702614
 H         4.588318         0.877389         2.497849
 H         2.218373        -1.844539         1.361970
