19
Iteration:   234charge 0 multiplicity 1
 C        -0.139763         0.061248         0.042094
 C         1.333216        -0.087063         0.007775
 C         2.337145         1.108123         0.170486
 C         3.200628        -0.236646         0.193057
 C         2.332111        -0.786479        -1.078738
 O         4.490876        -0.082082         0.678646
 C         4.315654        -0.155707         2.144148
 O         2.932109        -0.221047         2.338877
 C         2.333121        -0.916955         1.147993
 H        -0.430599         0.562671         0.899842
 H        -0.224023         0.907593        -0.863151
 H        -0.854103        -0.782297        -0.121419
 H         2.362218         1.695972        -0.888861
 H         2.297485         1.728566         1.140527
 H         2.556709        -0.119304        -1.995533
 H         2.055005        -1.948354        -1.095388
 H         4.789581        -1.096185         2.455507
 H         4.772113         0.749681         2.606996
 H         2.277329        -2.030352         1.273242
