19
Iteration:   618
 C        -0.059404         0.048348         0.102379
 C         1.366888        -0.074195         0.109762
 C         2.390191         1.122683         0.205303
 C         3.284030        -0.208564         0.120067
 C         2.267351        -0.682161        -0.991333
 O         4.567962        -0.359201         0.713157
 C         4.221990         0.121537         2.002144
 O         2.860945        -0.394112         2.305411
 C         2.291193        -0.848595         1.056976
 H        -0.379526         0.770108         0.957406
 H        -0.532524         0.446139        -0.897530
 H        -0.602827        -0.843272         0.315829
 H         2.333160         1.755174        -0.668129
 H         2.312256         1.687175         1.191610
 H         2.256383        -0.192935        -1.867315
 H         2.419025        -1.732686        -1.268954
 H         4.936329        -0.256390         2.823799
 H         4.068464         1.208636         1.924903
 H         2.099649        -1.897051         1.139965
