19
Iteration:  4311charge 0 multiplicity 1
 C        -0.141459        -0.069864        -0.103121
 C         1.369716        -0.031592         0.018756
 C         2.326816         1.125015         0.053800
 C         3.200553        -0.072416         0.235059
 C         2.373789        -0.789288        -0.864595
 O         4.506612        -0.019986         0.678787
 C         4.246192        -0.461549         2.100901
 O         2.900929        -0.159757         2.390562
 C         2.348493        -0.701262         1.175364
 H        -0.609851         0.785402         0.410090
 H        -0.592981        -0.240687        -1.096182
 H        -0.491889        -0.957562         0.380187
 H         2.428590         1.651865        -0.907946
 H         2.130770         1.926906         0.827257
 H         2.561823        -0.541136        -1.920572
 H         2.458141        -1.919177        -0.965048
 H         4.566566        -1.528347         2.079551
 H         4.947906         0.164550         2.670342
 H         2.304932        -1.781563         1.238351
