19
Iteration:  3540charge 0 multiplicity 1
 C        -0.067318        -0.069111         0.042432
 C         1.401255        -0.049120         0.106609
 C         2.425756         1.130043         0.133053
 C         3.261204        -0.224013         0.164282
 C         2.349522        -0.647196        -1.047407
 O         4.557231        -0.252360         0.682148
 C         4.132101         0.029630         2.069745
 O         2.820574        -0.328916         2.337349
 C         2.274986        -0.859171         1.192344
 H        -0.505417         0.225497         1.023766
 H        -0.480686         0.806291        -0.519540
 H        -0.436108        -1.058470        -0.515086
 H         2.601168         1.675226        -0.830741
 H         2.452974         1.847867         0.990256
 H         2.541593        -0.250161        -2.030780
 H         2.112356        -1.758498        -1.258611
 H         4.815813        -0.442065         2.783049
 H         4.319733         1.088938         2.125841
 H         2.118191        -1.918741         1.204223
