19
Iteration:  3692
 C        -0.171325        -0.051427        -0.031577
 C         1.338763        -0.092555         0.054071
 C         2.340682         1.172656         0.062987
 C         3.267413        -0.151299         0.126324
 C         2.397016        -0.811510        -1.026024
 O         4.590984        -0.068725         0.728056
 C         4.299766        -0.283572         2.161417
 O         2.812924        -0.186222         2.382827
 C         2.296753        -0.774404         1.164997
 H        -0.366296         0.081067         0.957692
 H        -0.450026         0.716343        -0.624663
 H        -0.563936        -1.029286        -0.292945
 H         2.347166         1.915814        -0.732851
 H         2.387195         1.777000         0.970805
 H         2.190829        -0.395720        -2.015804
 H         2.231137        -1.894390        -1.031076
 H         4.656228        -1.297407         2.440229
 H         4.776144         0.637129         2.574916
 H         2.017387        -1.861982         1.049363
