19
Iteration:   810
 C        -0.116435         0.116138         0.041159
 C         1.348321        -0.072141         0.089560
 C         2.245201         1.095495         0.144671
 C         3.257677        -0.144788         0.185495
 C         2.344929        -0.816536        -0.903361
 O         4.584916         0.048174         0.618312
 C         4.307830        -0.332000         2.015954
 O         2.867386        -0.309323         2.309566
 C         2.304556        -0.826394         1.145398
 H        -0.587336         0.733456         0.764531
 H        -0.287470         0.514865        -0.950592
 H        -0.672467        -0.926966         0.124015
 H         2.434194         1.768786        -0.792880
 H         2.370738         1.651962         1.123421
 H         2.292131        -0.471370        -1.956024
 H         2.171429        -1.872510        -0.829792
 H         4.748010        -1.377870         2.292159
 H         4.662154         0.526087         2.580196
 H         2.243659        -1.941041         1.382676
