19
Iteration:  3321
 C        -0.165781         0.003284        -0.045453
 C         1.380017        -0.095407         0.016705
 C         2.312439         1.186802         0.152587
 C         3.314587        -0.108237         0.110904
 C         2.349298        -0.830808        -0.957282
 O         4.509371        -0.122040         0.635343
 C         4.260311        -0.207557         2.197526
 O         2.902734        -0.198139         2.379577
 C         2.292284        -0.852888         1.145794
 H        -0.582030         0.159211         0.858967
 H        -0.305491         0.747048        -0.762704
 H        -0.614622        -0.904172        -0.398750
 H         2.424369         1.827463        -0.757038
 H         2.080501         1.752513         1.064993
 H         2.381908        -0.419034        -1.974216
 H         2.357424        -1.937894        -1.072362
 H         4.753297        -1.178364         2.482127
 H         4.629291         0.637160         2.764942
 H         2.279865        -2.040189         1.319008
