19
Iteration:  4631
 C        -0.163804        -0.074949        -0.042020
 C         1.350272        -0.078665         0.059267
 C         2.411181         1.155075         0.130994
 C         3.230954        -0.149549         0.155610
 C         2.298434        -0.743734        -0.966932
 O         4.547168        -0.183226         0.683293
 C         4.275320        -0.204360         2.177041
 O         2.848034        -0.153376         2.345319
 C         2.350243        -0.827792         1.143217
 H        -0.737609         0.299593         0.754705
 H        -0.354473         0.675868        -0.864276
 H        -0.582517        -1.081946        -0.369380
 H         2.454104         1.728796        -0.786857
 H         2.372538         1.935091         0.917482
 H         2.329170        -0.163396        -1.927814
 H         2.416284        -1.822502        -1.166797
 H         4.619339        -1.157146         2.434540
 H         4.883988         0.613065         2.626191
 H         2.159421        -1.894648         1.256150
