19
Iteration:  3005
 C        -0.245267         0.015551        -0.091990
 C         1.333710        -0.086980         0.036510
 C         2.291165         1.090939         0.115204
 C         3.212137        -0.130691         0.181239
 C         2.439629        -0.771356        -0.985909
 O         4.511856        -0.147899         0.697968
 C         4.324650        -0.329115         2.137625
 O         2.872752        -0.154194         2.369184
 C         2.395577        -0.700397         1.161883
 H        -0.506043         0.340869         1.038790
 H        -0.778153         0.720344        -0.829804
 H        -0.509294        -1.132762        -0.189478
 H         2.378174         1.631094        -0.788835
 H         2.177216         1.638995         1.040585
 H         2.534338        -0.268038        -2.027123
 H         2.428765        -1.840166        -1.182067
 H         4.694655        -1.330353         2.412263
 H         4.729444         0.476533         2.754084
 H         2.591218        -1.793612         1.256549
