19
Iteration:   401
 C        -0.058651         0.105082         0.096044
 C         1.383321        -0.028381         0.146481
 C         2.397544         1.110755         0.146091
 C         3.254099        -0.187204         0.026143
 C         2.264150        -0.811206        -1.025467
 O         4.558922        -0.275746         0.688161
 C         4.181929         0.110319         2.027996
 O         2.827056        -0.449857         2.419959
 C         2.354165        -0.827151         1.078769
 H        -0.438865         0.465532         1.122072
 H        -0.396887         0.825915        -0.639437
 H        -0.448083        -0.836500        -0.144394
 H         2.394155         1.888542        -0.706349
 H         2.459399         1.683922         1.101102
 H         2.365854        -0.512465        -2.062241
 H         2.302065        -1.963216        -0.975742
 H         4.921728        -0.226629         2.681595
 H         4.063222         1.183876         2.090866
 H         2.198618        -1.922466         1.064335
