19
Iteration:  2085
 C        -0.247397         0.111734         0.041314
 C         1.287584        -0.167977         0.129435
 C         2.367142         1.123197         0.052815
 C         3.235366        -0.100497         0.159753
 C         2.395220        -0.791162        -1.001190
 O         4.520573        -0.190427         0.674841
 C         4.272360        -0.274398         2.159533
 O         2.929961        -0.174347         2.330151
 C         2.377876        -0.843440         1.134748
 H        -0.397770         0.864806         0.811675
 H        -0.543265         0.553732        -0.979543
 H        -0.902453        -0.839845         0.201092
 H         2.499076         1.769495        -0.904656
 H         2.391987         1.875374         0.893164
 H         2.184211        -0.242553        -1.984185
 H         2.384438        -1.875569        -1.220862
 H         4.807686        -1.058498         2.533476
 H         4.636471         0.753523         2.467898
 H         2.389540        -1.999194         1.201662
