19
Iteration:  4995
 C        -0.150757         0.046066        -0.009703
 C         1.367626        -0.071183         0.022881
 C         2.320570         1.151804         0.003476
 C         3.277986        -0.094883         0.146970
 C         2.355995        -0.762932        -1.032682
 O         4.580774        -0.208572         0.681731
 C         4.274572        -0.156218         2.153288
 O         2.834376        -0.317785         2.506952
 C         2.312441        -0.823334         1.148697
 H        -0.576920         0.388198         0.945919
 H        -0.312873         0.606528        -0.865706
 H        -0.747009        -0.907078        -0.117843
 H         2.401383         1.610224        -0.979672
 H         2.209150         1.744538         0.803591
 H         2.299608        -0.157849        -1.999242
 H         2.246409        -1.835924        -1.109212
 H         4.903506        -0.842377         2.709678
 H         4.356282         0.931111         2.393571
 H         2.394580        -1.934162         1.224177
