19
Iteration:  4442charge 0 multiplicity 1
 C        -0.073343         0.099955        -0.050521
 C         1.353798        -0.156126         0.046510
 C         2.391659         1.079159         0.199795
 C         3.231860        -0.267701         0.127296
 C         2.286954        -0.716912        -1.099885
 O         4.554436        -0.239478         0.695232
 C         4.158272         0.094328         2.073451
 O         2.876514        -0.339905         2.427881
 C         2.353086        -0.882883         1.196625
 H        -0.639441         0.371744         0.888751
 H        -0.238212         1.025692        -0.690270
 H        -0.672959        -0.761493        -0.281987
 H         2.516709         1.682037        -0.708173
 H         2.358528         1.819821         1.040666
 H         2.610017        -0.148373        -1.988810
 H         2.210098        -1.916759        -1.144463
 H         4.890852        -0.375492         2.767264
 H         4.250898         1.201747         2.123094
 H         2.305884        -1.983332         1.320946
