19
Iteration:    35charge 0 multiplicity 1
 C        -0.228366        -0.152436         0.003355
 C         1.317712         0.015102         0.112932
 C         2.277735         1.213426         0.104112
 C         3.197379        -0.113725         0.123831
 C         2.422705        -0.728869        -0.987960
 O         4.561081        -0.218868         0.684495
 C         4.316884        -0.495416         2.046195
 O         2.918477        -0.038611         2.350084
 C         2.341123        -0.638312         1.209164
 H        -0.808285         0.174562         0.797149
 H        -0.674127         0.269348        -0.958850
 H        -0.336635        -1.263592        -0.119696
 H         2.271636         1.816167        -0.790992
 H         2.369017         1.683148         1.106431
 H         2.540157        -0.112949        -1.920264
 H         2.446533        -1.808203        -1.073381
 H         4.322469        -1.579472         2.346600
 H         4.960840         0.124443         2.638181
 H         2.409749        -1.709562         1.296808
