19
Iteration:  1466charge 0 multiplicity 1
 C        -0.157226        -0.141854         0.040707
 C         1.368069        -0.012629         0.074933
 C         2.373975         1.220046         0.096103
 C         3.193228        -0.051891         0.159755
 C         2.422068        -0.698411        -0.985424
 O         4.480705        -0.316953         0.696292
 C         4.278673        -0.343709         2.010347
 O         2.902544        -0.134061         2.369406
 C         2.305738        -0.677826         1.188392
 H        -0.640194         0.446776         0.815055
 H        -0.531490         0.280020        -0.932543
 H        -0.615459        -1.178735         0.293091
 H         2.519227         1.775336        -0.799569
 H         2.383289         1.787508         0.953421
 H         2.344421        -0.266200        -1.964120
 H         2.358652        -1.790788        -1.145429
 H         4.525566        -1.367673         2.254331
 H         4.809893         0.473439         2.524724
 H         2.215647        -1.804911         1.148590
