19
Iteration:  1836
 C        -0.113742         0.024365         0.000393
 C         1.400538        -0.024058         0.092514
 C         2.451230         1.149667         0.095074
 C         3.231803        -0.165664         0.109674
 C         2.300488        -0.708976        -1.006710
 O         4.508987        -0.331261         0.656614
 C         4.259891        -0.069940         2.002083
 O         2.826214        -0.330009         2.475102
 C         2.320315        -0.748758         1.207885
 H        -0.556187         0.198157         0.970130
 H        -0.624977         0.597649        -0.783297
 H        -0.575392        -0.994410        -0.187014
 H         2.452041         1.765456        -0.813111
 H         2.636303         1.701565         1.100601
 H         2.233298        -0.193823        -1.999184
 H         2.117390        -1.799685        -1.143883
 H         4.941220        -0.618139         2.518370
 H         4.430184         0.992425         2.058387
 H         2.291934        -1.898208         1.378391
