19
Iteration:   632
 C        -0.159271         0.116991         0.103898
 C         1.416330        -0.073891         0.110356
 C         2.333319         1.066434         0.132657
 C         3.232116        -0.265956         0.078556
 C         2.280088        -0.675098        -1.151515
 O         4.614178        -0.347900         0.708229
 C         4.161824         0.183494         2.066017
 O         2.939394        -0.443947         2.426955
 C         2.330323        -0.873924         1.142352
 H        -0.474312         0.838575         0.895745
 H        -0.382630         0.537289        -0.823370
 H        -0.652749        -0.838486         0.069934
 H         2.528791         1.813744        -0.679552
 H         2.345430         1.657740         1.106984
 H         2.260660         0.039243        -1.989642
 H         1.940261        -1.678623        -1.308313
 H         4.912053        -0.056198         2.767450
 H         4.182184         1.286235         2.094300
 H         2.267906        -2.031022         1.132342
