19
Iteration:   819
 C        -0.129917         0.096285        -0.006515
 C         1.376836        -0.096522         0.180290
 C         2.270008         1.137690         0.190150
 C         3.250376        -0.152681         0.086299
 C         2.371616        -0.821305        -0.924481
 O         4.569842        -0.035563         0.603293
 C         4.324378        -0.242835         2.038978
 O         2.848696        -0.282929         2.335363
 C         2.291494        -0.862140         1.137664
 H        -0.545909         0.780140         0.819622
 H        -0.375664         0.680065        -0.892488
 H        -0.761794        -0.919293        -0.048924
 H         2.092006         1.978074        -0.626967
 H         2.357222         1.541123         1.211346
 H         2.264494        -0.514184        -1.977528
 H         2.258229        -1.841805        -0.827434
 H         4.708369        -1.256774         2.455866
 H         4.943539         0.506720         2.604645
 H         2.223242        -1.899816         1.045005
