19
Iteration:   191
 C        -0.067445        -0.042539        -0.013778
 C         1.400752        -0.007428         0.153867
 C         2.354613         1.228120         0.160155
 C         3.218153        -0.154583         0.164067
 C         2.320009        -0.668620        -0.931541
 O         4.462816        -0.387294         0.672138
 C         4.230970         0.014413         2.016934
 O         2.926081        -0.399971         2.358593
 C         2.290663        -0.807954         1.137797
 H        -0.558975         0.024159         0.878080
 H        -0.477443         0.831164        -0.761709
 H        -0.350608        -0.946708        -0.602864
 H         2.474342         1.794694        -0.856820
 H         2.395760         1.814990         1.111941
 H         2.559349        -0.211999        -1.928364
 H         2.091381        -1.802563        -0.771965
 H         5.139985        -0.240162         2.613265
 H         4.155586         1.108969         1.875889
 H         2.289181        -1.870068         0.921517
