19
Iteration:  3573
 C        -0.137696         0.081324         0.039675
 C         1.351240        -0.148299         0.028991
 C         2.336681         1.091816         0.121185
 C         3.267856        -0.124286         0.110950
 C         2.392419        -0.775494        -1.024470
 O         4.537778        -0.173277         0.750485
 C         4.195126        -0.038683         2.084335
 O         2.884539        -0.391145         2.328088
 C         2.332070        -0.791905         1.164727
 H        -0.327607         0.690811         0.971824
 H        -0.207454         0.576398        -0.966422
 H        -0.765895        -0.955051         0.115708
 H         2.447130         1.761291        -0.769285
 H         2.216419         1.716659         1.045304
 H         2.531916        -0.304208        -1.995237
 H         2.262632        -1.899730        -0.937258
 H         4.656486        -0.627560         2.867411
 H         4.204321         1.044835         2.294491
 H         2.289487        -1.857430         1.024712
