19
Iteration:  3375charge 0 multiplicity 1
 C        -0.121247        -0.176465         0.035347
 C         1.368214        -0.010444         0.033237
 C         2.358980         1.096353         0.092476
 C         3.276893        -0.072461         0.087370
 C         2.321005        -0.711503        -0.939621
 O         4.529851        -0.150304         0.704670
 C         4.250025        -0.388282         2.128959
 O         2.843579        -0.120154         2.351980
 C         2.281689        -0.631371         1.113728
 H        -0.547243         0.262327         0.874270
 H        -0.461282         0.282703        -0.864539
 H        -0.208169        -1.288209        -0.055162
 H         2.349343         1.805323        -0.771723
 H         2.573248         1.710021         0.972707
 H         2.452962        -0.393967        -1.997530
 H         2.224442        -1.844824        -0.892888
 H         4.397509        -1.412733         2.486215
 H         4.715117         0.318040         2.770266
 H         2.612970        -1.710915         1.166583
