19
Iteration:  1437
 C        -0.104079        -0.092330         0.106676
 C         1.422722        -0.003173         0.078463
 C         2.358579         1.168556         0.071297
 C         3.307495        -0.080858         0.114921
 C         2.294392        -0.724157        -1.010686
 O         4.649428        -0.204531         0.581223
 C         4.147466        -0.375089         2.194686
 O         2.836761        -0.120313         2.367996
 C         2.298097        -0.728935         1.123431
 H        -0.591418         0.574042         0.943197
 H        -0.633899        -0.031721        -0.866362
 H        -0.444176        -1.066760         0.423662
 H         2.369243         1.735799        -0.908361
 H         2.390455         1.812603         1.082477
 H         1.924958        -0.276905        -2.015592
 H         2.224185        -1.862232        -1.191722
 H         4.416773        -1.487028         2.320454
 H         4.752185         0.252167         2.867138
 H         2.040467        -1.752298         1.221772
