19
Iteration:  2923charge 0 multiplicity 1
 C        -0.095304         0.007901         0.046194
 C         1.380690        -0.064223         0.084739
 C         2.239305         1.166600         0.034521
 C         3.244022        -0.210219         0.132748
 C         2.429106        -0.683661        -1.043214
 O         4.538809        -0.207962         0.724494
 C         4.254293        -0.161727         2.127557
 O         2.839997        -0.257452         2.399599
 C         2.349755        -0.824162         1.109706
 H        -0.623696         0.615906         0.754060
 H        -0.434392         0.211495        -1.043888
 H        -0.721460        -0.895942         0.182549
 H         2.164021         1.906910        -0.814978
 H         2.292623         1.730811         1.045089
 H         2.564233        -0.184303        -1.941322
 H         2.347925        -1.807579        -1.088773
 H         4.840858        -1.031254         2.419800
 H         4.606116         0.726060         2.702509
 H         2.197228        -1.935480         1.108580
