19
Iteration:  3107
 C        -0.097323        -0.140101         0.031057
 C         1.397348        -0.052067         0.110902
 C         2.341485         1.174056         0.160745
 C         3.205658        -0.070339         0.104061
 C         2.436878        -0.728864        -1.008374
 O         4.500031        -0.277471         0.650615
 C         4.241617        -0.205799         2.153242
 O         2.801213        -0.192882         2.310984
 C         2.290777        -0.686863         1.117504
 H        -0.418162         0.495212         0.857601
 H        -0.277555         0.269225        -0.961239
 H        -0.314942        -1.125636         0.158128
 H         2.307390         1.760500        -0.789181
 H         2.536215         1.715689         1.060467
 H         2.406224        -0.185356        -1.917747
 H         2.453646        -1.891484        -1.127079
 H         4.541462        -1.139940         2.557444
 H         4.704683         0.595922         2.722311
 H         2.352013        -1.788289         1.234465
