19
Iteration:  1193
 C        -0.152804        -0.074668         0.052958
 C         1.340958         0.033442         0.050800
 C         2.281490         1.260268         0.165891
 C         3.251983        -0.236941         0.135751
 C         2.367813        -0.583678        -1.005936
 O         4.566739        -0.403357         0.615153
 C         4.300391        -0.086378         2.063464
 O         2.899413        -0.374317         2.425512
 C         2.291933        -0.743140         1.173387
 H        -0.545643         0.118752         0.958290
 H        -0.657867         0.564333        -0.650916
 H        -0.346146        -1.132716        -0.232839
 H         2.466500         1.890751        -0.728290
 H         2.280692         1.949347         1.025302
 H         2.393479         0.056580        -1.887502
 H         2.219928        -1.653341        -1.286974
 H         5.010239        -0.684481         2.584985
 H         4.515922         0.980486         2.093834
 H         1.941039        -1.828801         1.055311
