19
Iteration:  2266charge 0 multiplicity 1
 C        -0.190430        -0.027615         0.072642
 C         1.345513         0.008325         0.060813
 C         2.411009         1.137662         0.145897
 C         3.227117        -0.157561         0.119491
 C         2.355150        -0.776272        -1.034029
 O         4.576723        -0.318076         0.630375
 C         4.231325        -0.096328         2.078483
 O         2.821909        -0.238281         2.356149
 C         2.345262        -0.745875         1.189149
 H        -0.658417         0.583631         1.028137
 H        -0.640556         0.401952        -0.891565
 H        -0.476870        -1.091454         0.203658
 H         2.639311         1.800403        -0.649993
 H         2.465171         1.713865         1.011920
 H         2.664950        -0.175957        -1.931101
 H         2.357398        -1.841932        -1.292594
 H         4.684376        -0.977014         2.727144
 H         4.476694         0.942422         2.334713
 H         2.323273        -1.908253         1.296390
