19
Iteration:   676
 C        -0.095267         0.103554         0.007515
 C         1.352546        -0.022167         0.143208
 C         2.300866         1.147192         0.189130
 C         3.264994        -0.156062         0.079286
 C         2.329455        -0.876032        -0.969479
 O         4.530114        -0.182582         0.607150
 C         4.247769        -0.076602         2.042840
 O         2.893729        -0.429787         2.384735
 C         2.319166        -0.759589         1.155956
 H        -0.492165         0.493911         0.997114
 H        -0.298691         0.859718        -0.710700
 H        -0.512842        -0.897962        -0.274284
 H         2.081768         1.869462        -0.699802
 H         2.252670         1.831360         1.079846
 H         2.562739        -0.571564        -1.989745
 H         2.326524        -1.923086        -0.813028
 H         4.989797        -0.622975         2.563651
 H         4.498661         0.982298         2.270582
 H         2.091211        -1.898393         1.137200
