19
Iteration:  4060
 C        -0.176988        -0.142056         0.086531
 C         1.399921        -0.035509         0.012024
 C         2.336455         1.213953         0.023209
 C         3.277073        -0.086940         0.136915
 C         2.361185        -0.759341        -1.029060
 O         4.577997        -0.191593         0.732565
 C         4.198381        -0.340343         2.204154
 O         2.799114        -0.111397         2.425104
 C         2.358335        -0.699055         1.015652
 H        -0.568060        -0.011224         1.072412
 H        -0.632850         0.456212        -0.732723
 H        -0.186813        -1.118403        -0.234777
 H         2.408155         1.711427        -0.966352
 H         2.273629         1.716296         1.000152
 H         2.349907        -0.419243        -1.976185
 H         2.286412        -1.823114        -1.021242
 H         4.454139        -1.392626         2.296891
 H         4.981280         0.390984         2.607154
 H         2.460607        -1.800998         1.255616
