19
Iteration:    96charge 0 multiplicity 1
 C        -0.235963         0.031289         0.065842
 C         1.294554        -0.094005         0.037948
 C         2.368749         1.124954        -0.002680
 C         3.182615        -0.122800         0.162005
 C         2.403088        -0.762909        -0.983181
 O         4.550587        -0.010086         0.678193
 C         4.326189        -0.386258         2.163846
 O         2.945671        -0.257799         2.359465
 C         2.245952        -0.787403         1.157245
 H        -0.500138         0.847463         0.955717
 H        -0.576264         0.416241        -0.888993
 H        -0.688788        -0.935835         0.279876
 H         2.501649         1.650781        -0.948994
 H         2.370338         1.905427         0.704306
 H         2.418446        -0.289563        -1.919827
 H         2.586513        -1.847449        -1.110816
 H         4.922983        -1.353924         2.431949
 H         4.841108         0.428467         2.700893
 H         2.075272        -1.907841         1.195345
