19
Iteration:  2529charge 0 multiplicity 1
 C        -0.132719        -0.059496         0.002855
 C         1.421953        -0.035706         0.077783
 C         2.427417         1.179241         0.094048
 C         3.171709        -0.173169         0.145507
 C         2.314880        -0.745779        -0.954661
 O         4.528484        -0.198595         0.689861
 C         4.322952        -0.159805         2.090806
 O         2.873273        -0.256007         2.375440
 C         2.232506        -0.792197         1.117652
 H        -0.638661         0.505581         0.765558
 H        -0.496445         0.412325        -0.942110
 H        -0.474835        -1.068261        -0.100315
 H         2.250357         1.817706        -0.804896
 H         2.335653         1.755220         1.047016
 H         2.629998        -0.147822        -1.889294
 H         2.008716        -1.824721        -1.045639
 H         4.952866        -0.978566         2.606403
 H         4.700018         0.809980         2.439360
 H         2.115874        -1.908856         1.206728
