19
Iteration:  1174
 C        -0.103517        -0.226743         0.015208
 C         1.371654         0.080730         0.060031
 C         2.511940         1.238382         0.233070
 C         3.156854        -0.047404         0.161812
 C         2.259261        -0.583771        -0.983912
 O         4.450171        -0.416545         0.626683
 C         4.349052        -0.112203         2.000251
 O         2.869388        -0.349619         2.374453
 C         2.253638        -0.701273         1.165825
 H        -0.578193         0.085485         0.997065
 H        -0.692388         0.321371        -0.786779
 H        -0.190591        -1.238896        -0.251322
 H         2.549815         1.902104        -0.715665
 H         2.654370         1.668349         1.217656
 H         2.450622        -0.268857        -1.950558
 H         2.240085        -1.623480        -0.988388
 H         4.888329        -0.800888         2.704047
 H         4.713810         0.918553         2.184228
 H         2.173608        -1.824698         0.958081
