19
Iteration:  2344
 C        -0.111599         0.035995        -0.012462
 C         1.418301        -0.021186         0.058516
 C         2.245996         1.183059        -0.021628
 C         3.212591        -0.192139         0.194250
 C         2.377320        -0.807838        -0.974449
 O         4.498706        -0.158723         0.628561
 C         4.397741        -0.168822         2.104083
 O         2.878754        -0.327773         2.407346
 C         2.292654        -0.743503         1.236115
 H        -0.484916         0.551664         0.954804
 H        -0.548751         0.678890        -0.886366
 H        -0.559770        -1.013001        -0.170356
 H         2.475602         1.810773        -0.847375
 H         2.107600         1.734277         0.887273
 H         2.346881        -0.539653        -2.068672
 H         2.160473        -1.857360        -0.864314
 H         4.628751        -1.144571         2.629152
 H         4.670783         0.666418         2.728790
 H         2.087131        -1.872240         1.262116
