19
Iteration:   837
 C        -0.130603         0.027765         0.011591
 C         1.336270        -0.140653         0.106668
 C         2.299295         1.125606         0.202841
 C         3.207400        -0.089019         0.154984
 C         2.304639        -0.718376        -1.042531
 O         4.491324        -0.237931         0.602078
 C         4.279870        -0.205563         2.068533
 O         2.919314        -0.252423         2.383058
 C         2.397337        -0.764981         1.156018
 H        -0.699651         0.525063         0.843427
 H        -0.314992         0.747064        -0.815319
 H        -0.587579        -0.882938        -0.181644
 H         2.464494         1.694379        -0.673600
 H         2.379255         1.653039         1.130311
 H         2.261345        -0.140949        -1.983553
 H         2.448185        -1.871232        -1.194965
 H         4.894938        -0.930965         2.574902
 H         4.630814         0.772044         2.495381
 H         2.534231        -1.883889         1.358072
