19
Iteration:  3035
 C        -0.075080         0.016221        -0.071825
 C         1.405876        -0.105528         0.125473
 C         2.320793         1.114488         0.084328
 C         3.239641        -0.132691         0.173173
 C         2.359244        -0.787061        -0.921417
 O         4.517750        -0.014321         0.627706
 C         4.271730        -0.335450         2.090040
 O         2.771244        -0.256597         2.376005
 C         2.342919        -0.744732         1.178648
 H        -0.260141         0.585742         0.788056
 H        -0.230375         0.524876        -0.988689
 H        -0.438554        -1.019426         0.057827
 H         2.360393         1.572248        -0.916999
 H         2.196150         1.826402         0.889181
 H         2.332225        -0.318825        -1.930169
 H         2.300949        -1.823781        -0.914623
 H         4.712101        -1.292712         2.335661
 H         4.627388         0.465685         2.725944
 H         2.305172        -1.824964         1.208203
