19
Iteration:   678charge 0 multiplicity 1
 C        -0.110918         0.103018         0.012974
 C         1.368805        -0.018193         0.141886
 C         2.294579         1.150405         0.190977
 C         3.257038        -0.148353         0.049974
 C         2.326488        -0.877121        -0.954749
 O         4.527283        -0.186143         0.613686
 C         4.257469        -0.098718         2.049010
 O         2.889665        -0.414475         2.393701
 C         2.326418        -0.756956         1.154452
 H        -0.449514         0.465690         0.936639
 H        -0.329191         0.791846        -0.718821
 H        -0.513779        -0.901970        -0.336177
 H         2.053966         1.875072        -0.674652
 H         2.277711         1.813283         1.034223
 H         2.570598        -0.496240        -2.043038
 H         2.369971        -1.952205        -0.818701
 H         4.991664        -0.611631         2.568498
 H         4.520806         0.935502         2.266386
 H         2.112755        -1.909074         1.147263
