19
Iteration:  1805charge 0 multiplicity 1
 C        -0.255705         0.175691         0.013953
 C         1.388537        -0.074853         0.087794
 C         2.315994         1.073794         0.075511
 C         3.223028        -0.165711         0.168632
 C         2.431264        -0.800150        -0.953722
 O         4.514032        -0.225211         0.716329
 C         4.350649        -0.140640         2.074431
 O         2.908063        -0.311901         2.344288
 C         2.302332        -0.798286         1.100914
 H        -0.598752         0.562952         1.000955
 H        -0.715752         0.796967        -0.768234
 H        -0.708649        -0.809929        -0.214986
 H         2.303111         1.723308        -0.826072
 H         2.391114         1.810331         1.000985
 H         2.344186        -0.404127        -2.000483
 H         2.313226        -1.886987        -0.907397
 H         4.977046        -0.861250         2.583940
 H         4.641525         0.936825         2.385120
 H         2.144629        -1.862115         1.180534
