19
Iteration:  3809
 C        -0.174834        -0.136272        -0.072958
 C         1.370617        -0.026563         0.066683
 C         2.385229         1.137197         0.169160
 C         3.215730        -0.105202         0.219380
 C         2.340010        -0.684123        -1.089720
 O         4.580420        -0.266641         0.690090
 C         4.336050        -0.145560         2.116890
 O         2.814604        -0.210343         2.389610
 C         2.304251        -0.774171         1.166044
 H        -0.809602         0.571204         0.601767
 H        -0.549342         0.057448        -1.216436
 H        -0.393012        -1.165116         0.282889
 H         2.532037         1.825180        -0.684342
 H         2.320836         1.823322         1.009963
 H         2.432308        -0.105496        -2.022475
 H         2.242544        -1.842637        -0.978317
 H         4.760265        -1.065639         2.447848
 H         4.687883         0.843541         2.397880
 H         2.047758        -1.836160         1.197742
