19
Iteration:   814
 C        -0.125239         0.097295         0.023002
 C         1.366785        -0.085178         0.137096
 C         2.239730         1.129394         0.152676
 C         3.267822        -0.154734         0.147123
 C         2.372999        -0.804560        -0.907078
 O         4.584617         0.017857         0.606621
 C         4.319292        -0.298982         2.020654
 O         2.852055        -0.299889         2.315349
 C         2.282833        -0.847683         1.134267
 H        -0.612574         0.764200         0.740996
 H        -0.347074         0.647229        -0.929917
 H        -0.624845        -0.779172         0.050779
 H         2.260941         1.820334        -0.602163
 H         2.410202         1.523084         1.154850
 H         2.246469        -0.524205        -1.954341
 H         2.126556        -1.966146        -0.762884
 H         4.678263        -1.197383         2.430598
 H         4.856484         0.483124         2.563164
 H         2.245722        -2.022175         1.273121
