19
Iteration:   160
 C        -0.232212        -0.050201         0.028317
 C         1.350916        -0.005089         0.034094
 C         2.423723         1.133053         0.172731
 C         3.237473        -0.278591         0.147568
 C         2.344039        -0.599207        -1.064831
 O         4.607236        -0.316635         0.649686
 C         4.258470        -0.000994         2.052236
 O         2.880336        -0.348701         2.462265
 C         2.255606        -0.797451         1.130321
 H        -0.712096         0.219531         0.989513
 H        -0.624351         0.689543        -0.779415
 H        -0.557634        -1.077983         0.090857
 H         2.652254         1.851666        -0.648573
 H         2.471172         1.715138         1.042567
 H         2.622990        -0.174329        -1.988794
 H         2.114347        -1.669258        -1.368165
 H         5.091333        -0.320966         2.817355
 H         4.277228         1.109346         2.035232
 H         2.124208        -1.870407         1.228245
