19
Iteration:  4481charge 0 multiplicity 1
 C        -0.140125        -0.017200        -0.045400
 C         1.377093        -0.038848         0.065573
 C         2.348383         1.194623         0.170049
 C         3.231875        -0.109976         0.152706
 C         2.400945        -0.814517        -1.021662
 O         4.556952        -0.260083         0.656305
 C         4.190685        -0.066658         2.111704
 O         2.883852        -0.331198         2.409631
 C         2.306751        -0.753718         1.159601
 H        -0.659703         0.730196         0.661026
 H        -0.330000         0.281012        -1.050064
 H        -0.721646        -1.007920         0.077428
 H         2.416388         1.668717        -0.805710
 H         2.300506         1.668339         1.183947
 H         2.461522        -0.429867        -2.090739
 H         2.226141        -1.821421        -0.958753
 H         4.895222        -0.818367         2.561201
 H         4.467730         0.994629         2.458442
 H         2.221052        -1.875409         1.014547
