19
Iteration:  4004charge 0 multiplicity 1
 C        -0.159400        -0.020905        -0.029900
 C         1.369846        -0.157429         0.020881
 C         2.276932         1.151806         0.006176
 C         3.259102        -0.108987         0.155969
 C         2.385135        -0.777371        -0.954066
 O         4.554421        -0.030964         0.658089
 C         4.207682        -0.365929         2.207243
 O         2.893576        -0.227574         2.373282
 C         2.345546        -0.710393         1.162605
 H        -0.464070         0.624576         0.871995
 H        -0.440292         0.407483        -0.977389
 H        -0.682334        -0.926503         0.052334
 H         2.338541         1.846007        -0.875116
 H         2.261976         1.817282         0.895838
 H         2.353347        -0.334281        -1.901284
 H         2.330261        -1.835937        -0.934362
 H         4.671332        -1.393977         2.495943
 H         4.709584         0.314802         2.948574
 H         2.451285        -1.848476         1.305438
