19
Iteration:  4111
 C        -0.159504        -0.030630        -0.125539
 C         1.367576        -0.080583         0.040017
 C         2.391264         1.151911         0.235664
 C         3.172429        -0.169629         0.101539
 C         2.371838        -0.808206        -1.037189
 O         4.563281        -0.176626         0.649167
 C         4.279851        -0.074748         2.118538
 O         2.827588        -0.301825         2.409669
 C         2.322288        -0.764368         1.232724
 H        -0.529353         0.820507         0.653418
 H        -0.424683         0.396341        -1.101515
 H        -0.641660        -1.032591         0.116079
 H         2.469883         1.888260        -0.579858
 H         2.445605         1.544469         1.255364
 H         2.434993        -0.207175        -2.102709
 H         2.337264        -1.939339        -1.017244
 H         4.798061        -0.928580         2.588614
 H         4.625718         0.904569         2.331937
 H         2.194930        -1.822299         1.339504
