19
Iteration:  3513charge 0 multiplicity 1
 C        -0.168074        -0.095854         0.005338
 C         1.394942        -0.047894         0.045362
 C         2.398348         1.192489         0.205728
 C         3.265573        -0.112243         0.131582
 C         2.352102        -0.687602        -1.072931
 O         4.544939        -0.400908         0.720395
 C         4.267772         0.044790         2.078487
 O         2.799553        -0.295770         2.371174
 C         2.301286        -0.789885         1.158048
 H        -0.640512        -0.047403         0.981378
 H        -0.646076         0.706172        -0.566387
 H        -0.434712        -1.056270        -0.528473
 H         2.402526         1.904360        -0.615991
 H         2.383110         1.745210         1.125985
 H         2.527705        -0.442149        -2.146415
 H         2.290981        -1.742674        -1.083023
 H         4.958350        -0.495553         2.788990
 H         4.528502         1.162953         1.959301
 H         2.288110        -1.983659         1.217152
