19
Iteration:  4796charge 0 multiplicity 1
 C        -0.172280        -0.103120        -0.058328
 C         1.426337         0.013154         0.079994
 C         2.464564         1.136259         0.140503
 C         3.314412        -0.234514         0.098750
 C         2.286395        -0.668202        -0.942808
 O         4.568052        -0.284233         0.646934
 C         4.229506        -0.043238         2.082898
 O         2.793103        -0.301498         2.402833
 C         2.315821        -0.752085         1.158972
 H        -0.635554         0.035680         0.969251
 H        -0.789339         0.618843        -0.760168
 H        -0.299656        -1.178000        -0.503139
 H         2.413684         1.823561        -0.651663
 H         2.361679         1.823390         1.022335
 H         2.342789        -0.013251        -1.846554
 H         2.086749        -1.705370        -1.101127
 H         4.841048        -0.733611         2.737540
 H         4.357418         1.055931         2.465898
 H         2.085421        -1.883755         1.363947
