19
Iteration:   888
 C        -0.073819        -0.143923         0.104608
 C         1.387920         0.043247         0.076928
 C         2.541697         1.199216         0.206247
 C         3.252555        -0.113737         0.117204
 C         2.283834        -0.636359        -0.940895
 O         4.448637        -0.427708         0.614261
 C         4.190860         0.047414         1.999491
 O         2.851239        -0.363247         2.381516
 C         2.288645        -0.780142         1.036182
 H        -0.387497         0.203168         1.050330
 H        -0.727199         0.529561        -0.532253
 H        -0.364868        -1.227288        -0.047872
 H         2.477668         1.931822        -0.586841
 H         2.415314         1.734503         1.243883
 H         2.396363        -0.197694        -1.894159
 H         2.264303        -1.763853        -1.029999
 H         4.993372        -0.519074         2.537387
 H         4.273104         1.092372         2.223513
 H         2.313716        -1.869614         1.115271
