19
Iteration:   102charge 0 multiplicity 1
 C        -0.224047         0.105352         0.074775
 C         1.307287        -0.115817         0.040066
 C         2.337457         1.119972         0.009897
 C         3.224168        -0.098578         0.192093
 C         2.403837        -0.786413        -0.966200
 O         4.553538        -0.044648         0.630830
 C         4.342323        -0.317868         2.174856
 O         2.895145        -0.283133         2.324946
 C         2.302994        -0.810214         1.157570
 H        -0.390952         0.760887         0.811261
 H        -0.856849         0.377725        -0.890419
 H        -0.651602        -0.899631         0.283172
 H         2.521885         1.603406        -0.978883
 H         2.212537         1.743776         0.971096
 H         2.435829        -0.183623        -1.935081
 H         2.439014        -1.891788        -1.019550
 H         4.708655        -1.317637         2.377969
 H         4.672640         0.451238         2.906633
 H         2.318231        -1.894774         1.195501
