19
Iteration:  2692
 C        -0.059734        -0.051242        -0.020199
 C         1.384878        -0.047385         0.015175
 C         2.356423         1.200813         0.202215
 C         3.269374        -0.128850         0.121774
 C         2.365274        -0.764253        -0.995465
 O         4.572095        -0.299197         0.631270
 C         4.240751        -0.089214         2.112275
 O         2.844258        -0.236657         2.366588
 C         2.206631        -0.785959         1.183921
 H        -0.601557         0.358733         0.905011
 H        -0.360039         0.294511        -1.078541
 H        -0.326990        -1.118410        -0.087176
 H         2.300979         2.096110        -0.540900
 H         2.214396         1.684233         1.241481
 H         2.155102        -0.229490        -1.948361
 H         2.261447        -1.850333        -1.134356
 H         4.686253        -0.969451         2.578875
 H         4.715260         0.802206         2.660477
 H         2.048610        -1.845490         1.212231
