19
Iteration:  1127
 C        -0.174458         0.045080         0.072631
 C         1.381033        -0.152732         0.065065
 C         2.307352         1.167398         0.157258
 C         3.229098        -0.115794         0.146813
 C         2.338113        -0.670541        -1.049156
 O         4.498019        -0.215317         0.667664
 C         4.368304        -0.254951         2.082833
 O         2.874135        -0.248597         2.372383
 C         2.345285        -0.812269         1.110470
 H        -0.286641         0.762727         0.772714
 H        -0.610289         0.480204        -0.795877
 H        -0.768284        -0.876098         0.259092
 H         2.393892         1.755692        -0.733403
 H         2.147372         1.678642         1.142805
 H         2.208719        -0.020161        -1.902157
 H         2.345205        -1.701556        -1.380218
 H         4.940768        -1.121203         2.373510
 H         4.664010         0.646038         2.638069
 H         2.389370        -2.001684         1.167075
