19
Iteration:  3121
 C        -0.141314        -0.110307         0.005648
 C         1.390759        -0.033385         0.067727
 C         2.347840         1.164594         0.114296
 C         3.307190        -0.170363         0.148651
 C         2.335754        -0.669111        -0.957334
 O         4.613962        -0.226016         0.712437
 C         4.234448        -0.227606         2.092164
 O         2.802833        -0.162536         2.343497
 C         2.301242        -0.778731         1.121888
 H        -0.736149         0.326762         0.753863
 H        -0.670862         0.370610        -0.803049
 H        -0.453872        -1.165982        -0.027173
 H         2.419672         1.943249        -0.821827
 H         2.145875         1.619387         1.131472
 H         2.401664        -0.284872        -2.031384
 H         2.311771        -1.783993        -1.130453
 H         4.791163        -1.108405         2.570911
 H         4.612430         0.759926         2.425351
 H         2.117935        -1.899748         1.136817
