19
Iteration:  4147
 C        -0.090151         0.090714        -0.103956
 C         1.344450        -0.109751         0.106891
 C         2.303912         1.172869         0.130045
 C         3.209803        -0.200911         0.186853
 C         2.354870        -0.718853        -1.025509
 O         4.533095        -0.271974         0.680322
 C         4.221805         0.092919         2.062956
 O         2.883600        -0.455584         2.435797
 C         2.420675        -0.884516         1.212023
 H        -0.535724         0.944692         0.606249
 H        -0.390110         0.267675        -1.223553
 H        -0.703955        -0.759656         0.096377
 H         2.320772         1.685041        -0.876659
 H         2.461300         1.947709         0.939606
 H         2.365493        -0.228939        -1.986471
 H         2.315258        -1.769381        -1.260627
 H         4.883252        -0.354196         2.781114
 H         4.103082         1.203330         2.286481
 H         2.247634        -1.964309         1.169521
