19
Iteration:  4933charge 0 multiplicity 1
 C        -0.110381        -0.145483        -0.048858
 C         1.385250        -0.045111         0.056011
 C         2.264237         1.209297         0.026272
 C         3.248853        -0.084574         0.161593
 C         2.397120        -0.717756        -0.958828
 O         4.543437        -0.229014         0.704350
 C         4.237809        -0.413410         2.136538
 O         2.891482        -0.091633         2.377116
 C         2.292671        -0.703103         1.192719
 H        -0.546340         0.286286         0.953217
 H        -0.548668         0.563194        -0.795342
 H        -0.483342        -1.161517        -0.178768
 H         2.211129         1.819604        -0.904349
 H         2.314706         1.898700         0.951094
 H         2.429891        -0.203917        -1.895694
 H         2.240527        -1.813517        -1.215734
 H         4.608604        -1.402477         2.408275
 H         4.852738         0.423100         2.641850
 H         2.291951        -1.813948         1.163483
