19
Iteration:  4934
 C        -0.113108        -0.145796        -0.044515
 C         1.392182        -0.042556         0.049828
 C         2.262791         1.205650         0.033681
 C         3.242943        -0.091843         0.159513
 C         2.398352        -0.719936        -0.947316
 O         4.547080        -0.230637         0.697110
 C         4.235849        -0.405187         2.131452
 O         2.885945        -0.090856         2.379102
 C         2.294103        -0.701358         1.188063
 H        -0.531050         0.289801         0.911676
 H        -0.564366         0.573557        -0.790479
 H        -0.443025        -1.153940        -0.214059
 H         2.194364         1.826538        -0.887006
 H         2.350146         1.914712         0.972395
 H         2.431919        -0.154934        -1.886670
 H         2.227956        -1.860733        -1.213490
 H         4.605947        -1.397619         2.419966
 H         4.824841         0.382219         2.653153
 H         2.333698        -1.800121         1.183300
