19
Iteration:  3012
 C        -0.241567         0.024287        -0.052084
 C         1.315917        -0.094047         0.027479
 C         2.268900         1.109775         0.110014
 C         3.243413        -0.106625         0.144083
 C         2.448346        -0.808282        -1.011499
 O         4.539598        -0.127156         0.716280
 C         4.304490        -0.296282         2.127414
 O         2.909615        -0.168946         2.386952
 C         2.307191        -0.761330         1.170467
 H        -0.478017         0.388793         0.890201
 H        -0.374909         0.672148        -0.854698
 H        -0.470913        -1.045781        -0.207915
 H         2.271733         1.802754        -0.790928
 H         2.258490         1.698558         1.019962
 H         2.490147        -0.306976        -1.949940
 H         2.487408        -1.873885        -1.100533
 H         4.641986        -1.312949         2.328117
 H         4.795930         0.401329         2.819789
 H         2.343080        -1.832436         1.219196
