19
Iteration:  3092charge 0 multiplicity 1
 C        -0.068646        -0.111056         0.039962
 C         1.405276        -0.059013         0.079372
 C         2.338079         1.241118         0.076859
 C         3.254071        -0.120630         0.146156
 C         2.438762        -0.703949        -1.044038
 O         4.472571        -0.230471         0.667412
 C         4.206112        -0.299239         2.115434
 O         2.810579        -0.149097         2.407622
 C         2.345407        -0.803091         1.147386
 H        -0.609437         0.576278         0.801661
 H        -0.612822         0.043084        -0.937839
 H        -0.638153        -1.109022         0.303752
 H         2.422661         1.947425        -0.727821
 H         2.139197         1.956261         0.886373
 H         2.529555        -0.241525        -2.066779
 H         2.421095        -1.755891        -0.939249
 H         4.760838        -1.181369         2.464382
 H         4.657995         0.642412         2.444281
 H         2.284410        -1.874502         1.052812
