19
Iteration:  1231charge 0 multiplicity 1
 C        -0.107502         0.201760         0.085478
 C         1.401099        -0.162864         0.043743
 C         2.366607         1.071296         0.253743
 C         3.227803        -0.174890         0.126387
 C         2.276605        -0.740071        -0.991121
 O         4.550079        -0.131887         0.616435
 C         4.310597        -0.007185         2.014239
 O         2.754438        -0.444929         2.349438
 C         2.371508        -0.900389         1.089143
 H        -0.383779         0.719676         1.122081
 H        -0.318849         0.858743        -0.780480
 H        -0.781974        -0.664852         0.106390
 H         2.478745         1.738827        -0.641211
 H         2.567555         1.514414         1.258809
 H         2.227783        -0.225341        -1.959575
 H         2.534958        -1.763153        -1.020879
 H         4.740565        -0.786996         2.687891
 H         4.403977         1.042917         2.373664
 H         2.409248        -2.010269         1.146941
