19
Iteration:  1690
 C        -0.169600        -0.035909        -0.017846
 C         1.315213        -0.049226         0.092805
 C         2.418625         1.149273         0.055261
 C         3.232336        -0.142370         0.136340
 C         2.303427        -0.785869        -0.952474
 O         4.560136        -0.089636         0.692086
 C         4.292247        -0.426031         2.077639
 O         2.879769        -0.118314         2.363323
 C         2.326582        -0.682024         1.206151
 H        -0.619182         0.434213         0.901818
 H        -0.638064         0.353331        -0.938285
 H        -0.487136        -1.090012        -0.097456
 H         2.391582         1.798411        -0.827036
 H         2.579119         1.795480         0.869559
 H         2.226820        -0.456251        -2.016788
 H         2.247174        -1.896123        -0.943137
 H         4.443145        -1.508375         2.178295
 H         4.898342         0.083377         2.759153
 H         2.211288        -1.849256         1.269110
