19
Iteration:  2912charge 0 multiplicity 1
 C        -0.090804         0.018086         0.010884
 C         1.390625        -0.125990         0.119833
 C         2.284125         1.220033         0.186884
 C         3.253779        -0.149276         0.165635
 C         2.418792        -0.769558        -1.033525
 O         4.505898        -0.172701         0.683699
 C         4.239612        -0.148719         2.123268
 O         2.839693        -0.263376         2.328082
 C         2.284668        -0.887517         1.105042
 H        -0.161615         0.871892         0.651328
 H        -0.275000         0.456503        -1.048786
 H        -0.510542        -0.942211         0.336731
 H         2.299516         1.628714        -0.874584
 H         2.118632         2.080270         0.943122
 H         2.591308        -0.386269        -1.972367
 H         2.179837        -1.858525        -1.158426
 H         4.719908        -0.988227         2.596109
 H         4.581529         0.834395         2.523029
 H         2.468149        -1.950355         0.896555
