19
Iteration:  1683charge 0 multiplicity 1
 C        -0.202358        -0.046690        -0.024406
 C         1.303138        -0.021634         0.070751
 C         2.400601         1.124286         0.052201
 C         3.273017        -0.165907         0.119679
 C         2.324268        -0.786394        -0.918294
 O         4.622927        -0.064597         0.645758
 C         4.158158        -0.379944         2.068269
 O         2.932678        -0.158218         2.382665
 C         2.311224        -0.726960         1.237521
 H        -0.644527         0.522205         0.754280
 H        -0.504884         0.609681        -0.889946
 H        -0.565398        -1.138653        -0.094835
 H         2.526431         1.775779        -0.929414
 H         2.538547         1.702541         1.022787
 H         2.199464        -0.245354        -1.858010
 H         2.129129        -1.909726        -0.895049
 H         4.420621        -1.464502         2.114898
 H         4.864120         0.142378         2.772011
 H         2.249750        -1.723164         1.493383
