19
Iteration:  4823
 C        -0.117226        -0.101724         0.003972
 C         1.405710        -0.020220         0.072984
 C         2.352372         1.191422         0.132657
 C         3.238106        -0.134031         0.108333
 C         2.413522        -0.731116        -0.990822
 O         4.442689        -0.279681         0.728344
 C         4.296839        -0.151114         2.052550
 O         2.822451        -0.268375         2.353339
 C         2.324527        -0.722317         1.155541
 H        -0.551119         0.438046         0.824728
 H        -0.424147         0.381141        -0.881904
 H        -0.471100        -1.065650        -0.173687
 H         2.334782         1.911501        -0.757054
 H         2.373345         1.831139         1.008950
 H         2.422473        -0.213410        -1.935915
 H         2.411879        -1.852614        -0.871838
 H         4.812204        -0.953173         2.522942
 H         4.570543         0.750335         2.564931
 H         2.224427        -1.775155         1.183691
