19
Iteration:  2031charge 0 multiplicity 1
 C        -0.199293        -0.105761         0.013704
 C         1.293415         0.057914         0.155577
 C         2.444860         1.103483         0.020544
 C         3.234936        -0.137050         0.134650
 C         2.312246        -0.763660        -0.968857
 O         4.567375        -0.125736         0.685624
 C         4.313633        -0.385648         2.055309
 O         2.853712        -0.169545         2.382120
 C         2.289885        -0.640236         1.181812
 H        -0.769516         0.451985         0.747520
 H        -0.530656         0.284827        -0.987574
 H        -0.416281        -1.210720         0.231797
 H         2.498935         1.627354        -0.908881
 H         2.671160         1.776879         0.856293
 H         2.497752        -0.393748        -2.028133
 H         2.020978        -1.822108        -0.997999
 H         4.587354        -1.442923         2.376589
 H         4.947073         0.292147         2.667010
 H         2.392298        -1.718552         1.064010
