19
Iteration:  4076charge 0 multiplicity 1
 C        -0.144822        -0.172655         0.006205
 C         1.379090        -0.063015         0.105414
 C         2.331530         1.200213         0.004505
 C         3.264382        -0.066085         0.097362
 C         2.380699        -0.707273        -0.997267
 O         4.565821        -0.241049         0.728059
 C         4.264640        -0.291362         2.165765
 O         2.823988        -0.189275         2.338124
 C         2.303222        -0.663059         1.186568
 H        -0.452515         0.240327         1.031099
 H        -0.490747         0.492310        -0.780292
 H        -0.650777        -1.211094        -0.185502
 H         2.309409         1.755181        -0.944173
 H         2.344760         1.903984         0.836326
 H         2.379643        -0.160764        -2.104340
 H         2.448117        -1.865283        -1.234163
 H         4.585177        -1.183000         2.755913
 H         4.660466         0.503212         2.780825
 H         2.200814        -1.769777         1.177943
