19
Iteration:  1637
 C        -0.143127         0.057904        -0.001552
 C         1.341421        -0.095986         0.105325
 C         2.269002         1.177992         0.095572
 C         3.296714        -0.148420         0.166717
 C         2.329198        -0.796381        -0.949877
 O         4.525816        -0.277778         0.615069
 C         4.301397        -0.180976         2.161830
 O         2.903890        -0.236015         2.380582
 C         2.336946        -0.769042         1.097456
 H        -0.541061         0.706221         0.792568
 H        -0.386200         0.706192        -0.874090
 H        -0.733576        -0.894982        -0.134569
 H         2.316948         1.854115        -0.865989
 H         2.020584         1.796933         0.942228
 H         2.452254        -0.296479        -1.930893
 H         2.302443        -1.918494        -0.927198
 H         4.945624        -0.974564         2.585750
 H         4.683851         0.749395         2.492205
 H         2.202515        -1.797530         1.099113
