19
Iteration:  2538charge 0 multiplicity 1
 C        -0.134015        -0.100027        -0.006693
 C         1.320248        -0.009433         0.144149
 C         2.422030         1.150124         0.103705
 C         3.262018        -0.153096         0.175255
 C         2.367550        -0.685634        -0.996398
 O         4.568679        -0.222703         0.623982
 C         4.267787        -0.138230         2.092118
 O         2.838110        -0.280471         2.349417
 C         2.212752        -0.764513         1.197422
 H        -0.622479         0.484122         0.788552
 H        -0.349172         0.315654        -0.961082
 H        -0.393841        -1.091721         0.059712
 H         2.657026         1.690479        -0.887001
 H         2.598883         1.843716         0.955425
 H         2.282110        -0.357746        -2.069806
 H         2.232165        -1.777226        -1.004033
 H         4.894620        -0.971915         2.310946
 H         4.543576         0.791357         2.663257
 H         1.941341        -1.809119         1.270226
