19
Iteration:  1474
 C        -0.153243        -0.084315         0.010371
 C         1.351032        -0.054146         0.038894
 C         2.363572         1.200108         0.106310
 C         3.236068        -0.044395         0.128480
 C         2.369316        -0.707291        -0.992978
 O         4.512829        -0.306818         0.631222
 C         4.339973        -0.363010         2.070856
 O         2.856175        -0.140070         2.423952
 C         2.262193        -0.700393         1.210790
 H        -0.537047         0.491974         0.782186
 H        -0.603189         0.274724        -0.887718
 H        -0.309466        -1.159704         0.047075
 H         2.287592         1.765627        -0.867418
 H         2.373575         1.917055         0.925286
 H         2.132506        -0.079394        -1.840675
 H         2.501634        -1.749124        -1.019739
 H         4.859894        -1.294381         2.439160
 H         4.853384         0.555801         2.500292
 H         2.222863        -1.871247         1.380240
