19
Iteration:    53charge 0 multiplicity 1
 C        -0.148667        -0.223282        -0.023573
 C         1.366944        -0.024293         0.159411
 C         2.335259         1.248759         0.110483
 C         3.297844         0.003413         0.150062
 C         2.304087        -0.752099        -0.872221
 O         4.576891        -0.134998         0.620155
 C         4.202868        -0.523134         2.090246
 O         2.941851        -0.097307         2.330677
 C         2.277028        -0.646740         1.094031
 H        -0.680736         0.438344         0.831067
 H        -0.401419         0.303042        -0.840171
 H        -0.501986        -1.207870        -0.215315
 H         2.350207         1.811385        -0.860736
 H         2.334091         1.984395         0.888566
 H         2.178395        -0.607786        -1.911554
 H         2.322791        -1.849304        -0.657146
 H         4.338992        -1.600771         2.114034
 H         4.903226        -0.119830         2.827239
 H         2.152709        -1.753016         1.321739
