19
Iteration:  3544charge 0 multiplicity 1
 C        -0.100372        -0.047157         0.051291
 C         1.393129        -0.066496         0.069098
 C         2.443975         1.153436         0.150651
 C         3.268002        -0.239041         0.128397
 C         2.351124        -0.670876        -1.050596
 O         4.553286        -0.237047         0.666178
 C         4.174094         0.039351         2.090332
 O         2.810909        -0.332314         2.363692
 C         2.284595        -0.886677         1.192544
 H        -0.501453         0.202029         1.037052
 H        -0.434995         0.776579        -0.622277
 H        -0.318332        -0.902971        -0.383156
 H         2.461162         1.607458        -0.848758
 H         2.408275         1.883632         0.949124
 H         2.543513        -0.199212        -2.070746
 H         2.149524        -1.703829        -1.146486
 H         4.717806        -0.461788         2.904522
 H         4.260703         1.130356         2.213856
 H         2.028068        -1.965641         1.124209
