19
Iteration:  2219charge 0 multiplicity 1
 C        -0.136182         0.123225        -0.035549
 C         1.367832        -0.061761         0.056544
 C         2.384119         1.083819         0.027520
 C         3.283936        -0.208188         0.092529
 C         2.286072        -0.768136        -0.927350
 O         4.544045        -0.170316         0.674110
 C         4.248114        -0.050555         2.068375
 O         2.872598        -0.433669         2.481953
 C         2.338782        -0.789717         1.146655
 H        -0.346809         0.855604         0.876669
 H        -0.532986         0.635064        -0.921858
 H        -0.697407        -0.798123         0.260759
 H         2.261088         1.731869        -0.822011
 H         2.385999         1.693030         0.959877
 H         2.073528        -0.274357        -1.875160
 H         2.018125        -1.874316        -1.001644
 H         4.975355        -0.677937         2.584973
 H         4.338206         0.992194         2.385553
 H         2.505642        -1.916711         1.125977
