19
Iteration:  3440charge 0 multiplicity 1
 C        -0.123659         0.022793        -0.005964
 C         1.325024        -0.082543         0.036694
 C         2.312161         1.100960         0.118256
 C         3.208542        -0.061909         0.097126
 C         2.365529        -0.788033        -1.011634
 O         4.616588        -0.098836         0.709302
 C         4.297174        -0.233492         2.190812
 O         2.851265        -0.267733         2.360899
 C         2.298386        -0.807272         1.125770
 H        -0.540419         0.778783         0.601503
 H        -0.419788         0.134596        -1.045791
 H        -0.730608        -0.880047         0.484175
 H         2.318955         1.741095        -0.790864
 H         2.250556         1.799665         0.962962
 H         2.404597        -0.598999        -2.091350
 H         2.283030        -1.925260        -0.852023
 H         4.896350        -1.120440         2.408370
 H         4.535946         0.656061         2.746266
 H         2.235888        -1.864462         1.055029
