19
Iteration:  1334
 C        -0.208518        -0.067938        -0.063025
 C         1.368370         0.005858         0.136762
 C         2.447225         1.124440         0.211489
 C         3.213164        -0.219584         0.087813
 C         2.255068        -0.623983        -0.995612
 O         4.600816        -0.278420         0.544806
 C         4.326539        -0.176146         2.074998
 O         2.821559        -0.185041         2.433202
 C         2.323015        -0.804882         1.200133
 H        -0.630791         0.318056         0.848092
 H        -0.746066         0.529430        -0.879219
 H        -0.510366        -1.226445        -0.246121
 H         2.552435         1.850411        -0.576084
 H         2.459218         1.625586         1.114207
 H         2.296304         0.068553        -1.845863
 H         2.283137        -1.797575        -1.138786
 H         4.772671        -1.073321         2.522356
 H         4.686613         0.746341         2.661720
 H         2.296295        -1.821879         1.271917
