19
Iteration:  1881charge 0 multiplicity 1
 C        -0.110731         0.025112         0.069453
 C         1.430290        -0.031256         0.043217
 C         2.410488         1.095262         0.176781
 C         3.217331        -0.214461         0.111273
 C         2.306047        -0.687826        -1.057228
 O         4.522702        -0.431608         0.627480
 C         4.318405         0.039251         2.055497
 O         2.788527        -0.270771         2.473696
 C         2.311618        -0.757437         1.116761
 H        -0.474681         0.710773         0.874132
 H        -0.511542         0.314371        -0.894384
 H        -0.582721        -0.971345         0.256911
 H         2.474906         1.872263        -0.617315
 H         2.166200         1.506813         1.253793
 H         2.370345        -0.069175        -1.998729
 H         2.304156        -1.766915        -1.245451
 H         4.956704        -0.559023         2.559390
 H         4.455461         1.109305         2.195236
 H         2.175181        -1.886651         1.023739
