19
Iteration:  4701
 C        -0.156339        -0.013429         0.034095
 C         1.415304        -0.043140         0.082167
 C         2.453883         1.140021         0.068320
 C         3.276241        -0.169753         0.156663
 C         2.285194        -0.730924        -1.077455
 O         4.599656        -0.208804         0.687185
 C         4.246524         0.000615         2.156016
 O         2.784710        -0.419561         2.417993
 C         2.288610        -0.807220         1.133060
 H        -0.743577         0.749892         0.640140
 H        -0.436794         0.193021        -0.973603
 H        -0.497408        -1.005505         0.388108
 H         2.400512         1.855099        -0.884829
 H         2.405660         1.865090         0.926258
 H         2.356028        -0.190339        -2.157005
 H         2.216025        -1.841482        -1.295635
 H         4.920549        -0.649874         2.756184
 H         4.265346         1.066545         2.422627
 H         2.168878        -1.854958         1.079323
