19
Iteration:  1729charge 0 multiplicity 1
 C        -0.226372        -0.102181         0.087977
 C         1.369084         0.003816         0.067040
 C         2.364234         1.208907        -0.010755
 C         3.292955        -0.083592         0.110451
 C         2.400531        -0.732428        -0.972614
 O         4.584052        -0.276634         0.597986
 C         4.173567        -0.374828         2.169087
 O         2.880281        -0.163553         2.414429
 C         2.274409        -0.656117         1.114899
 H        -0.551573         0.589530         0.905835
 H        -0.874312         0.269521        -0.692797
 H        -0.354089        -1.131577         0.434450
 H         2.312669         1.562781        -1.036221
 H         2.375414         1.923046         0.928635
 H         2.596948        -0.175367        -1.888603
 H         2.537282        -1.793515        -0.903540
 H         4.524494        -1.418130         2.430984
 H         4.852381         0.383477         2.776417
 H         2.285247        -1.667610         1.261343
