19
Iteration:  4622
 C        -0.138795        -0.027716        -0.074952
 C         1.356278        -0.051527         0.141847
 C         2.329480         1.206535         0.086721
 C         3.270808        -0.173171         0.104863
 C         2.343544        -0.786212        -0.997340
 O         4.546759        -0.131963         0.678761
 C         4.271471        -0.261485         2.165444
 O         2.863390        -0.164876         2.400555
 C         2.309358        -0.822603         1.117871
 H        -0.643453         0.150163         0.895808
 H        -0.415713         0.739089        -0.787032
 H        -0.461985        -1.109132        -0.319108
 H         2.525657         1.644339        -0.965870
 H         2.424429         1.768984         1.111323
 H         2.198794        -0.427708        -2.188062
 H         2.296250        -1.924026        -0.903006
 H         4.661973        -1.186835         2.544781
 H         4.649805         0.616828         2.784061
 H         2.211827        -1.862969         1.239431
