19
Iteration:   735
 C        -0.113947        -0.190696         0.115700
 C         1.381638         0.008841         0.137654
 C         2.400956         1.199430         0.178377
 C         3.219933        -0.090181         0.083288
 C         2.349163        -0.762537        -1.063265
 O         4.506644        -0.206795         0.634428
 C         4.240348        -0.417560         2.053143
 O         2.853352        -0.089253         2.352105
 C         2.301951        -0.586935         1.142782
 H        -0.582833         0.277757         0.913426
 H        -0.495639         0.107302        -0.844724
 H        -0.348790        -1.270211         0.158187
 H         2.417958         1.901402        -0.633545
 H         2.345226         1.711744         1.126087
 H         2.524538        -0.330700        -2.106820
 H         2.448941        -1.900165        -1.029908
 H         4.214045        -1.450909         2.213111
 H         4.947995         0.161043         2.582227
 H         2.320650        -1.723151         1.276993
