19
Iteration:  2821charge 0 multiplicity 1
 C        -0.156783        -0.032557        -0.039922
 C         1.356026        -0.033353         0.087662
 C         2.382173         1.139581         0.184449
 C         3.283359        -0.143481         0.148961
 C         2.406045        -0.725926        -0.976654
 O         4.561770        -0.306127         0.702879
 C         4.240231        -0.012298         2.067366
 O         2.856118        -0.282097         2.333525
 C         2.245968        -0.805376         1.128011
 H        -0.684712         0.167475         0.968629
 H        -0.596930         0.708860        -0.758638
 H        -0.475111        -1.036958        -0.251733
 H         2.406495         1.881630        -0.647381
 H         2.279010         1.587534         1.209000
 H         2.468707        -0.211636        -2.003821
 H         2.371249        -1.815058        -1.150463
 H         4.724833        -0.851866         2.641609
 H         4.499120         1.029656         2.325645
 H         2.154817        -2.033479         1.100234
