19
Iteration:  2822charge 0 multiplicity 1
 C        -0.155044        -0.033147        -0.035594
 C         1.357517        -0.025343         0.092674
 C         2.378576         1.143198         0.177589
 C         3.280960        -0.139734         0.131165
 C         2.407709        -0.721339        -0.976871
 O         4.568689        -0.312374         0.698114
 C         4.234710        -0.010695         2.074805
 O         2.856270        -0.287222         2.335028
 C         2.243105        -0.807372         1.134344
 H        -0.708834         0.158138         0.965629
 H        -0.614487         0.726518        -0.789298
 H        -0.475192        -1.060499        -0.259239
 H         2.422045         1.908913        -0.660540
 H         2.254234         1.571551         1.237386
 H         2.468001        -0.232796        -1.986987
 H         2.437374        -1.832201        -1.123295
 H         4.704409        -0.842801         2.631278
 H         4.515425         1.041264         2.337563
 H         2.145326        -2.057559         1.153352
