19
Iteration:  1601charge 0 multiplicity 1
 C        -0.110719        -0.037935         0.128668
 C         1.403016        -0.010583         0.082134
 C         2.531680         1.167664         0.129080
 C         3.239352        -0.255517         0.159661
 C         2.293600        -0.706187        -1.028624
 O         4.445016        -0.333587         0.670632
 C         4.243589         0.023201         2.099695
 O         2.846869        -0.316446         2.338119
 C         2.273324        -0.768471         1.054848
 H        -0.541590         0.545793         1.048938
 H        -0.372572         0.285639        -0.896730
 H        -0.522522        -1.035373         0.150160
 H         2.673287         1.732111        -0.729596
 H         2.538400         1.787114         1.072097
 H         2.364297        -0.167452        -2.005987
 H         2.114565        -1.718870        -1.302157
 H         4.945217        -0.520097         2.705937
 H         4.463262         1.077544         2.272049
 H         2.093186        -1.883956         1.252425
