19
Iteration:   122
 C        -0.050621         0.085338         0.116805
 C         1.378525        -0.127852         0.095048
 C         2.264620         1.152818         0.155453
 C         3.273925        -0.121823         0.047574
 C         2.333932        -0.802748        -1.017474
 O         4.559229        -0.146071         0.671442
 C         4.217265        -0.219952         2.072340
 O         2.798353        -0.279626         2.393823
 C         2.386491        -0.806302         1.073580
 H        -0.194905         0.946889         0.755174
 H        -0.308799         0.363051        -0.924310
 H        -0.720383        -0.789397         0.212137
 H         2.121750         1.798211        -0.723856
 H         2.272037         1.648989         1.223437
 H         2.338455        -0.360028        -2.081539
 H         2.370155        -1.871389        -0.886775
 H         4.687201        -1.020889         2.543822
 H         4.587617         0.765148         2.428582
 H         2.390143        -1.927992         1.102121
