19
Iteration:  2207charge 0 multiplicity 1
 C        -0.166902         0.143772         0.019134
 C         1.359546        -0.060861         0.145965
 C         2.394562         1.073628         0.115657
 C         3.274697        -0.170298         0.070238
 C         2.255104        -0.821365        -1.013265
 O         4.595326        -0.157160         0.639362
 C         4.289478        -0.009716         2.149597
 O         2.867628        -0.408526         2.386497
 C         2.283247        -0.856778         1.155309
 H        -0.617296         0.887803         0.739864
 H        -0.293777         0.515144        -1.001370
 H        -0.758575        -0.811304        -0.051954
 H         2.497091         1.672262        -0.816724
 H         2.497401         1.704321         1.057203
 H         2.402431        -0.433880        -2.037261
 H         2.313181        -1.949274        -1.029559
 H         4.950123        -0.641418         2.672258
 H         4.384559         1.079483         2.347339
 H         1.858813        -1.903643         1.211119
