19
Iteration:  1839
 C        -0.120524         0.015000         0.005878
 C         1.364086        -0.021423         0.125388
 C         2.469217         1.148632         0.097593
 C         3.276785        -0.170084         0.088724
 C         2.311662        -0.697410        -1.006031
 O         4.494184        -0.349946         0.658695
 C         4.277593        -0.038559         2.006585
 O         2.813975        -0.327909         2.452190
 C         2.290256        -0.767057         1.202976
 H        -0.701009         0.197686         0.968713
 H        -0.551795         0.610893        -0.793903
 H        -0.446132        -1.026214        -0.146146
 H         2.526525         1.740875        -0.843129
 H         2.623831         1.668555         1.116963
 H         2.193640        -0.167984        -1.984406
 H         2.088695        -1.755832        -1.097211
 H         5.014358        -0.651797         2.541705
 H         4.455896         1.073205         2.139223
 H         2.349998        -1.823672         1.287536
