19
Iteration:  2755charge 0 multiplicity 1
 C        -0.145783         0.065151         0.024110
 C         1.456534        -0.061343        -0.040886
 C         2.373495         1.212903         0.101394
 C         3.174207        -0.065093         0.190825
 C         2.389430        -0.836743        -1.021535
 O         4.537268        -0.213478         0.709636
 C         4.228443        -0.068140         2.097514
 O         2.823065        -0.376956         2.416868
 C         2.330623        -0.849373         1.094425
 H        -0.504585         0.643357         0.976696
 H        -0.737072         0.344852        -0.870119
 H        -0.471513        -0.950177         0.270303
 H         2.382613         1.866909        -0.781261
 H         2.203009         1.675644         1.069139
 H         2.343693        -0.383716        -2.058857
 H         2.355969        -1.898248        -0.957895
 H         4.853486        -0.862930         2.528654
 H         4.586949         0.891077         2.487356
 H         2.453572        -1.993885         1.174275
