19
Iteration:   383
 C        -0.172437         0.097813         0.050320
 C         1.379112        -0.083282         0.088903
 C         2.415448         1.118658         0.076605
 C         3.243897        -0.226339         0.190234
 C         2.333989        -0.778616        -0.931958
 O         4.574139        -0.153547         0.638213
 C         4.243494         0.000685         2.073763
 O         2.886037        -0.413377         2.300793
 C         2.249477        -0.851883         1.175377
 H        -0.411960         0.424028         1.097132
 H        -0.428846         0.864743        -0.652802
 H        -0.794301        -0.747025        -0.369858
 H         2.558802         1.583396        -0.825462
 H         2.352372         1.780896         0.960012
 H         2.229369        -0.285805        -1.908096
 H         2.160867        -1.776534        -0.992780
 H         4.920423        -0.617875         2.729345
 H         4.495781         1.077749         2.272798
 H         2.156839        -1.910063         1.198739
