19
Iteration:  2100charge 0 multiplicity 1
 C        -0.088423         0.056274         0.078277
 C         1.391783        -0.033944         0.062545
 C         2.343439         1.079650         0.109867
 C         3.222069        -0.229830         0.138007
 C         2.274537        -0.764406        -1.034161
 O         4.556571        -0.191864         0.646554
 C         4.327677        -0.139054         2.138049
 O         2.838555        -0.216952         2.345386
 C         2.270845        -0.789771         1.134141
 H        -0.600166         0.639985         0.889159
 H        -0.375421         0.543735        -0.832348
 H        -0.516566        -0.929106         0.146666
 H         2.398850         1.586066        -0.790249
 H         2.300828         1.674411         1.002548
 H         2.437862        -0.279208        -1.989566
 H         2.229349        -1.861107        -1.073707
 H         4.748385        -1.106658         2.605299
 H         4.792424         0.654270         2.696952
 H         2.273091        -1.869429         1.164159
