19
Iteration:  3266
 C        -0.123347        -0.050318         0.023933
 C         1.350192         0.001326         0.005248
 C         2.303198         1.132349         0.140080
 C         3.277354        -0.184646         0.101255
 C         2.383534        -0.705256        -0.990016
 O         4.544577        -0.278038         0.714936
 C         4.238653        -0.016485         2.107713
 O         2.816712        -0.352518         2.389753
 C         2.339425        -0.759883         1.125032
 H        -0.423557         0.623730         0.739755
 H        -0.673059         0.212529        -0.819723
 H        -0.454591        -1.027207         0.351455
 H         2.665114         1.648241        -0.756170
 H         2.209777         1.778762         1.003877
 H         2.618925        -0.188478        -1.926465
 H         2.372328        -1.768601        -1.186913
 H         4.890953        -0.733453         2.646383
 H         4.493395         1.002539         2.356429
 H         2.203746        -1.813333         0.972830
