19
Iteration:   266
 C        -0.150715        -0.049482         0.161595
 C         1.371724        -0.099417         0.115717
 C         2.330054         1.162540         0.002741
 C         3.274656        -0.026349         0.111184
 C         2.413988        -0.805185        -0.924123
 O         4.555953        -0.088304         0.696202
 C         4.237634        -0.405147         2.097648
 O         2.845023        -0.257133         2.348247
 C         2.278731        -0.626795         1.086745
 H        -0.394488         0.774128         0.736571
 H        -0.404663         0.181533        -0.970125
 H        -0.813973        -0.946438         0.259325
 H         2.166872         1.785782        -1.027665
 H         2.404135         1.922529         0.881275
 H         2.406332        -0.400624        -2.031808
 H         2.432512        -1.993814        -1.034382
 H         4.518323        -1.409145         2.209835
 H         4.900200         0.255971         2.681953
 H         2.211990        -1.780334         0.985148
