19
Iteration:  4577
 C        -0.181110        -0.008836         0.026265
 C         1.311537        -0.047403         0.030473
 C         2.330961         1.096469        -0.034814
 C         3.234379        -0.105339         0.149839
 C         2.489846        -0.790040        -1.030177
 O         4.532263        -0.050307         0.721578
 C         4.241535        -0.385327         2.169742
 O         2.896493        -0.196045         2.401101
 C         2.298996        -0.735120         1.210985
 H        -0.557782         0.273237         0.966953
 H        -0.540457         0.783672        -0.688809
 H        -0.602785        -1.042885        -0.108089
 H         2.178382         1.467955        -1.084687
 H         2.300439         1.906662         0.782477
 H         2.549874        -0.299351        -2.116126
 H         2.282298        -1.922060        -1.116573
 H         4.516053        -1.419987         2.355530
 H         4.860881         0.354164         2.770105
 H         2.355994        -1.786065         1.227053
