19
Iteration:  4241
 C        -0.171185        -0.038857         0.065118
 C         1.352734        -0.065455         0.027150
 C         2.339933         1.091388         0.127100
 C         3.238626        -0.121914         0.113457
 C         2.488083        -0.790761        -1.018681
 O         4.562482        -0.193572         0.692789
 C         4.269163        -0.233077         2.103404
 O         2.762600        -0.126930         2.360725
 C         2.301796        -0.716065         1.164160
 H        -0.736268         0.161816         0.967469
 H        -0.669097         0.492003        -0.685831
 H        -0.518216        -1.022161        -0.308947
 H         2.530546         1.792724        -0.673512
 H         2.328529         1.652691         1.018296
 H         2.627467        -0.475576        -2.089900
 H         2.546734        -1.870043        -1.104698
 H         4.663682        -1.221797         2.490688
 H         4.796251         0.609283         2.612498
 H         2.310670        -1.828377         1.151919
