19
Iteration:  1528charge 0 multiplicity 1
 C        -0.097932         0.112397         0.040296
 C         1.344879        -0.074454         0.067235
 C         2.344852         1.093874         0.144722
 C         3.217416        -0.222769         0.152157
 C         2.319300        -0.810047        -0.976287
 O         4.578597        -0.187862         0.572102
 C         4.332133        -0.036043         2.067697
 O         2.791694        -0.347486         2.412358
 C         2.289470        -0.812025         1.160598
 H        -0.377294         0.614489         0.956497
 H        -0.155714         0.842104        -0.751791
 H        -0.747062        -0.693353        -0.272635
 H         2.551968         1.791624        -0.758617
 H         2.379019         1.651870         1.105584
 H         2.411588        -0.299580        -1.982480
 H         2.121988        -1.903855        -1.077812
 H         4.959955        -0.846903         2.520058
 H         4.609324         0.948021         2.566401
 H         2.231496        -1.901077         1.278617
