19
Iteration:   301
 C        -0.100232        -0.244398         0.085835
 C         1.338156        -0.028189        -0.014913
 C         2.394406         1.194681         0.028065
 C         3.258695        -0.093192         0.166709
 C         2.264308        -0.686674        -0.994764
 O         4.543940        -0.121088         0.697225
 C         4.275933        -0.483628         2.066984
 O         2.903469        -0.138395         2.424563
 C         2.262019        -0.568908         1.171280
 H        -0.578380         0.548231         0.607806
 H        -0.475049        -0.062866        -0.993796
 H        -0.388879        -1.163225         0.543285
 H         2.493801         1.741896        -1.015201
 H         2.498906         1.853797         0.881210
 H         2.396830        -0.081071        -1.895266
 H         2.236148        -1.847327        -1.177595
 H         4.269266        -1.539437         2.136947
 H         4.987128        -0.048015         2.729031
 H         1.998593        -1.656171         1.341852
