19
Iteration:  2798charge 0 multiplicity 1
 C        -0.049715        -0.006900        -0.007846
 C         1.391657        -0.089165         0.057193
 C         2.376118         1.109713         0.113442
 C         3.214358        -0.208133         0.093876
 C         2.282991        -0.653267        -1.078479
 O         4.526489        -0.220012         0.669767
 C         4.277661        -0.021776         2.150735
 O         2.770238        -0.287551         2.416391
 C         2.355356        -0.890436         1.210260
 H        -0.499842         0.438221         0.935605
 H        -0.270518         0.718669        -0.777514
 H        -0.567283        -0.923363        -0.184017
 H         2.607630         1.702456        -0.777238
 H         2.345330         1.649938         1.032247
 H         2.359128        -0.079182        -2.086311
 H         2.380222        -1.700067        -1.267110
 H         4.913606        -0.827747         2.668404
 H         4.415394         1.011528         2.448574
 H         2.297848        -2.098309         1.373897
