19
Iteration:  2386charge 0 multiplicity 1
 C        -0.161079        -0.039967        -0.004633
 C         1.348119        -0.031587         0.081514
 C         2.339485         1.151090         0.182970
 C         3.228851        -0.203378         0.104178
 C         2.337455        -0.796961        -0.994406
 O         4.551006        -0.188071         0.684601
 C         4.325783        -0.195179         2.157632
 O         2.873760        -0.138729         2.338825
 C         2.304107        -0.816683         1.099479
 H        -0.446358         0.821995         0.724810
 H        -0.550749         0.259103        -1.015401
 H        -0.612502        -1.021081         0.176696
 H         2.502293         1.848005        -0.667196
 H         2.385674         1.822118         1.019062
 H         2.333590        -0.307841        -2.032232
 H         2.132324        -1.900007        -1.074174
 H         4.777191        -1.184755         2.451521
 H         4.820817         0.677637         2.570680
 H         2.104742        -1.934416         1.165267
