19
Iteration:  2629charge 0 multiplicity 1
 C        -0.098088         0.022297         0.060828
 C         1.475644        -0.042862         0.043118
 C         2.331736         1.127207         0.080639
 C         3.245280        -0.177069         0.118961
 C         2.304446        -0.797459        -0.942822
 O         4.564459        -0.137895         0.713149
 C         4.265696        -0.106998         2.111052
 O         2.801690        -0.300342         2.316739
 C         2.268004        -0.816967         1.134672
 H        -0.600375         0.421946         0.883821
 H        -0.462309         0.738912        -0.736823
 H        -0.420437        -0.938708        -0.217631
 H         2.371340         1.776498        -0.818124
 H         2.461754         1.567691         1.099286
 H         2.448885        -0.310576        -1.934162
 H         2.087636        -1.932957        -1.145746
 H         4.808848        -1.040651         2.512009
 H         4.575133         0.835400         2.762954
 H         2.272916        -1.945862         1.052622
