19
Iteration:  3268charge 0 multiplicity 1
 C        -0.102377        -0.060095         0.012440
 C         1.327061        -0.005110         0.015613
 C         2.313766         1.140237         0.127029
 C         3.265251        -0.191885         0.108896
 C         2.390440        -0.690682        -0.995079
 O         4.538574        -0.267630         0.697885
 C         4.228528        -0.030229         2.115565
 O         2.825875        -0.349963         2.390067
 C         2.343724        -0.764098         1.126870
 H        -0.404973         0.660704         0.857580
 H        -0.659676         0.247875        -0.905058
 H        -0.505483        -0.976039         0.362598
 H         2.590787         1.568169        -0.778899
 H         2.276928         1.724769         1.011944
 H         2.638197        -0.205144        -1.876732
 H         2.343780        -1.762730        -1.174425
 H         4.846563        -0.718038         2.697008
 H         4.503626         1.036945         2.429296
 H         2.254300        -1.821773         1.046600
