19
Iteration:  1524charge 0 multiplicity 1
 C        -0.102220         0.088614         0.005650
 C         1.323798        -0.096708         0.116098
 C         2.384461         1.082344         0.127206
 C         3.181990        -0.189350         0.161516
 C         2.299078        -0.805846        -0.997747
 O         4.575941        -0.183728         0.575297
 C         4.366768        -0.040279         2.097441
 O         2.786825        -0.340112         2.391169
 C         2.291509        -0.807396         1.166115
 H        -0.328541         0.735192         0.973673
 H        -0.247088         0.949147        -0.737552
 H        -0.682726        -0.773459        -0.325081
 H         2.554288         1.762228        -0.692313
 H         2.405936         1.619723         1.141539
 H         2.438226        -0.279267        -1.981927
 H         2.160311        -1.906249        -0.850456
 H         4.958673        -0.834516         2.502090
 H         4.711040         0.857188         2.531781
 H         2.190992        -1.876323         1.071044
