19
Iteration:  3180
 C        -0.152874         0.082249        -0.034884
 C         1.387409        -0.067736         0.083972
 C         2.290967         1.147636         0.098063
 C         3.182633        -0.105195         0.142895
 C         2.377528        -0.803545        -0.940335
 O         4.575768        -0.201482         0.634743
 C         4.261315        -0.053147         2.131323
 O         2.853143        -0.349017         2.372040
 C         2.309100        -0.882607         1.127030
 H        -0.511294         0.325271         1.026423
 H        -0.312878         0.826198        -0.847906
 H        -0.493278        -0.934427        -0.338189
 H         2.263785         1.764794        -0.823800
 H         2.291339         1.475067         1.132610
 H         2.680953        -0.389986        -1.879041
 H         2.524846        -1.844752        -0.915179
 H         4.877253        -0.681453         2.802494
 H         4.371865         1.022858         2.450517
 H         2.482745        -1.914784         1.197755
