19
Iteration:  4639
 C        -0.169898        -0.086101        -0.048086
 C         1.376864        -0.106011         0.063922
 C         2.407650         1.082259         0.125712
 C         3.238557        -0.142419         0.210656
 C         2.320215        -0.670698        -0.984058
 O         4.552955        -0.222089         0.684209
 C         4.260059        -0.201576         2.103159
 O         2.835902        -0.158373         2.319610
 C         2.321684        -0.726126         1.194860
 H        -0.581969         0.386634         0.840383
 H        -0.501340         0.429656        -1.013362
 H        -0.610654        -1.006598        -0.345359
 H         2.404385         1.664305        -0.728835
 H         2.372546         1.652240         0.989541
 H         2.470328        -0.063626        -1.739085
 H         2.211381        -1.720593        -1.202027
 H         4.739337        -1.160091         2.566786
 H         4.706219         0.674615         2.550181
 H         2.420586        -1.901007         1.242188
