19
Iteration:  4572charge 0 multiplicity 1
 C        -0.187968        -0.011890         0.045887
 C         1.349638        -0.036244         0.050771
 C         2.285559         1.111204        -0.029933
 C         3.259636        -0.148448         0.124869
 C         2.460502        -0.802417        -1.040841
 O         4.523946        -0.057993         0.729905
 C         4.264178        -0.366181         2.157974
 O         2.878369        -0.190937         2.397214
 C         2.328641        -0.693186         1.176753
 H        -0.514125         0.375655         1.070861
 H        -0.545230         0.601656        -0.839414
 H        -0.538828        -0.992771        -0.247757
 H         2.104075         1.506915        -1.014803
 H         2.342081         1.743540         0.810738
 H         2.633309        -0.245942        -1.895042
 H         2.409970        -1.860524        -1.190377
 H         4.410271        -1.449786         2.429663
 H         4.803145         0.194105         2.901203
 H         2.252298        -1.855397         1.331174
