19
Iteration:  1944charge 0 multiplicity 1
 C        -0.076967         0.050273         0.047286
 C         1.355852        -0.082823         0.099930
 C         2.511094         1.153950        -0.009891
 C         3.200725        -0.178320         0.109513
 C         2.192852        -0.792473        -1.029341
 O         4.498930        -0.134459         0.746323
 C         4.284341        -0.144811         2.078250
 O         2.846374        -0.296861         2.381860
 C         2.363210        -0.813344         1.166742
 H        -0.258272         0.619717         0.919210
 H        -0.391613         0.734278        -0.762000
 H        -0.614298        -0.947170         0.037318
 H         2.418401         1.795644        -0.802852
 H         2.311520         1.755566         0.835932
 H         1.924784        -0.383693        -2.039483
 H         2.221040        -1.884697        -1.115223
 H         4.773639        -1.201881         2.469149
 H         4.723809         0.679033         2.719836
 H         2.307818        -1.917867         1.351435
