19
Iteration:   488charge 0 multiplicity 1
 C        -0.161002        -0.053139        -0.009600
 C         1.336104        -0.044885         0.151436
 C         2.257052         1.198833         0.012303
 C         3.260240        -0.138304         0.120391
 C         2.260361        -0.793458        -0.931848
 O         4.613873        -0.164360         0.655580
 C         4.357317        -0.308061         2.117029
 O         2.869282        -0.243585         2.387650
 C         2.343308        -0.664827         1.146476
 H        -0.698109         0.578914         0.729018
 H        -0.368092         0.377332        -0.962780
 H        -0.524190        -1.023742         0.124402
 H         2.180103         1.760118        -0.951563
 H         2.313258         1.896429         0.919633
 H         2.512175        -0.146011        -1.730423
 H         2.177229        -1.928712        -1.133997
 H         4.608023        -1.301619         2.361065
 H         4.930123         0.438877         2.675177
 H         2.215953        -1.817838         1.218977
