19
Iteration:   816charge 0 multiplicity 1
 C        -0.125104         0.094020         0.008835
 C         1.373071        -0.090835         0.157688
 C         2.248573         1.135871         0.167898
 C         3.264086        -0.156253         0.122499
 C         2.376748        -0.809189        -0.912021
 O         4.580248        -0.001674         0.603914
 C         4.321184        -0.277817         2.025550
 O         2.848851        -0.293406         2.322372
 C         2.281349        -0.859299         1.134217
 H        -0.613724         0.807561         0.792202
 H        -0.369784         0.677909        -0.915865
 H        -0.675556        -0.830736         0.009410
 H         2.183111         1.900885        -0.609269
 H         2.396272         1.500523         1.159642
 H         2.245000        -0.530873        -1.961132
 H         2.161364        -1.921469        -0.772518
 H         4.680257        -1.195043         2.465683
 H         4.928701         0.492721         2.587217
 H         2.237803        -1.956782         1.176963
