19
Iteration:  3280charge 0 multiplicity 1
 C        -0.136771        -0.040267         0.013437
 C         1.420545        -0.105721         0.084919
 C         2.396294         1.140581         0.051774
 C         3.198024        -0.162045         0.191935
 C         2.404450        -0.677389        -1.039161
 O         4.514201        -0.196786         0.639553
 C         4.212806        -0.091441         2.168638
 O         2.856706        -0.307459         2.381794
 C         2.292224        -0.846250         1.152752
 H        -0.474997         0.732360         0.812800
 H        -0.364532         0.423605        -1.001205
 H        -0.604904        -1.006762         0.117402
 H         2.240093         1.773647        -0.757956
 H         2.516565         1.795830         0.893992
 H         2.437307        -0.144186        -1.933321
 H         2.270979        -1.757141        -1.149886
 H         4.843475        -0.812576         2.694774
 H         4.393181         1.012796         2.447390
 H         2.272012        -1.909162         1.257123
