19
Iteration:  3967charge 0 multiplicity 1
 C        -0.129216        -0.050980        -0.084317
 C         1.363703        -0.068865         0.088102
 C         2.355188         1.179841         0.111586
 C         3.215217        -0.164000         0.139709
 C         2.387019        -0.726482        -0.926814
 O         4.530714        -0.159583         0.610664
 C         4.237039        -0.144944         2.153698
 O         2.873267        -0.309910         2.415466
 C         2.318141        -0.779033         1.216164
 H        -0.690170         0.819174         0.416406
 H        -0.350441         0.164020        -1.166196
 H        -0.604083        -1.100901         0.156953
 H         2.428473         1.699863        -0.823866
 H         2.427466         1.711995         1.054531
 H         2.439030        -0.210586        -1.939911
 H         2.291919        -1.756040        -1.287113
 H         4.742472        -1.082507         2.425575
 H         4.626266         0.824257         2.449146
 H         2.175602        -1.846946         1.139834
