19
Iteration:   757charge 0 multiplicity 1
 C        -0.137271        -0.147143         0.116762
 C         1.366379        -0.006864         0.083095
 C         2.305538         1.265627        -0.016944
 C         3.276021        -0.028008         0.178787
 C         2.374211        -0.699966        -0.867622
 O         4.577585        -0.147690         0.640311
 C         4.244864        -0.495055         2.102769
 O         2.868298        -0.181763         2.292194
 C         2.280522        -0.681034         1.117092
 H        -0.383045         0.458998         0.907587
 H        -0.694151        -0.033501        -0.802717
 H        -0.364829        -1.176229         0.435000
 H         2.326739         1.834788        -0.919333
 H         2.283714         1.944249         0.850815
 H         2.268802        -0.350738        -1.950943
 H         2.369747        -1.862777        -0.819948
 H         4.252548        -1.553286         2.098939
 H         4.917174         0.044916         2.687916
 H         2.283583        -1.854447         1.235805
