19
Iteration:  4045
 C        -0.060099        -0.175017         0.037914
 C         1.371911        -0.029545         0.002141
 C         2.384159         1.140891         0.064288
 C         3.291139        -0.105703         0.117670
 C         2.377915        -0.766318        -0.965731
 O         4.533986        -0.076845         0.690408
 C         4.191419        -0.402375         2.174799
 O         2.817972        -0.094000         2.308616
 C         2.284283        -0.716041         1.150530
 H        -0.369440         0.129586         1.158075
 H        -0.679322         0.558421        -0.452162
 H        -0.603954        -1.162401        -0.048130
 H         2.430745         1.785178        -0.819045
 H         2.390350         1.840549         0.903869
 H         2.557720        -0.238669        -1.969595
 H         2.291811        -1.846730        -0.912831
 H         4.393433        -1.506752         2.375710
 H         4.643995         0.255594         2.884160
 H         2.141217        -1.762427         1.123994
