19
Iteration:  3108charge 0 multiplicity 1
 C        -0.097077        -0.130316         0.029981
 C         1.386650        -0.053901         0.111516
 C         2.343093         1.160192         0.153572
 C         3.208811        -0.072570         0.114453
 C         2.429323        -0.727533        -1.005898
 O         4.514259        -0.276905         0.655308
 C         4.238763        -0.202961         2.144270
 O         2.802759        -0.189935         2.310811
 C         2.289276        -0.688426         1.112664
 H        -0.417035         0.441569         0.859973
 H        -0.280128         0.237887        -0.960784
 H        -0.308054        -1.128505         0.138234
 H         2.291637         1.845920        -0.786763
 H         2.539071         1.717868         1.069853
 H         2.403950        -0.144339        -1.904645
 H         2.457292        -1.892975        -1.095294
 H         4.555093        -1.159147         2.567194
 H         4.691158         0.608069         2.723850
 H         2.317323        -1.810265         1.214002
