19
Iteration:   363
 C        -0.167952         0.098678         0.016079
 C         1.337046        -0.064660         0.072578
 C         2.322024         1.084465         0.076347
 C         3.171859        -0.159852         0.114870
 C         2.335469        -0.803246        -1.067415
 O         4.506811        -0.181460         0.658319
 C         4.330228        -0.139993         2.106419
 O         2.916002        -0.271579         2.485182
 C         2.356016        -0.795261         1.186031
 H        -0.618747         0.362916         0.953995
 H        -0.503003         0.778798        -0.836803
 H        -0.578363        -0.918777        -0.378660
 H         2.218536         1.615919        -0.898681
 H         2.491339         1.663513         1.001236
 H         2.457127        -0.174992        -2.008860
 H         2.390328        -1.914342        -1.207743
 H         5.034102        -1.012641         2.423572
 H         4.760397         0.789779         2.608639
 H         2.279505        -1.926292         1.208006
