19
Iteration:  4601
 C        -0.110907        -0.010610         0.000989
 C         1.362107        -0.069003         0.002161
 C         2.367229         1.164813         0.004734
 C         3.234205        -0.091883         0.146804
 C         2.363972        -0.868956        -0.871412
 O         4.515498        -0.077919         0.698637
 C         4.292448        -0.288977         2.091075
 O         2.817678        -0.274849         2.389021
 C         2.329411        -0.688859         1.169527
 H        -0.657444         0.144079         0.968181
 H        -0.297742         0.841347        -0.592090
 H        -0.527892        -0.994443        -0.380985
 H         2.243472         1.693548        -1.049135
 H         2.255472         1.809371         0.989493
 H         2.529736        -0.325057        -1.962540
 H         2.471580        -1.980589        -0.964281
 H         4.520143        -1.356844         2.323433
 H         4.847510         0.447638         2.773296
 H         2.136810        -1.729732         1.181390
