19
Iteration:  3667charge 0 multiplicity 1
 C        -0.129588        -0.129209         0.001427
 C         1.323083        -0.046467        -0.000211
 C         2.342970         1.130094         0.086579
 C         3.230268        -0.101897         0.215339
 C         2.451425        -0.654067        -1.005951
 O         4.500812        -0.259132         0.631776
 C         4.243676        -0.235761         2.179999
 O         2.865934        -0.162222         2.383800
 C         2.295674        -0.752820         1.181623
 H        -0.540395         0.221514         0.968727
 H        -0.444037         0.451355        -0.903007
 H        -0.297464        -1.165357        -0.126308
 H         2.496932         1.710900        -0.828387
 H         2.275326         1.861648         0.911795
 H         2.434221        -0.157635        -1.957326
 H         2.421440        -1.785929        -1.001647
 H         4.764417        -1.141236         2.517895
 H         4.627735         0.736882         2.441438
 H         2.215286        -1.848998         1.038275
