19
Iteration:  2152
 C        -0.187134        -0.045898         0.055601
 C         1.408606         0.013617         0.075305
 C         2.312032         1.193165         0.060986
 C         3.261564        -0.207508         0.110252
 C         2.345737        -0.671936        -1.017246
 O         4.560753        -0.431525         0.756339
 C         4.290999        -0.070287         2.066399
 O         2.903954        -0.263811         2.353409
 C         2.275779        -0.756782         1.169694
 H        -0.516613         0.325967         1.079727
 H        -0.722647         0.672752        -0.611692
 H        -0.623915        -1.094009        -0.146306
 H         2.431786         1.790291        -0.883377
 H         2.386539         1.857071         0.977649
 H         2.367511        -0.052997        -1.962519
 H         2.177669        -1.725679        -1.330529
 H         4.869961        -0.592233         2.759488
 H         4.457788         1.054864         2.157842
 H         2.165307        -1.917317         1.168551
