19
Iteration:  1593
 C        -0.053884        -0.036504         0.155582
 C         1.425501         0.032937         0.043364
 C         2.472486         1.101482         0.176118
 C         3.217425        -0.221014         0.096916
 C         2.299532        -0.677354        -1.006278
 O         4.477404        -0.396744         0.636222
 C         4.170413         0.101831         2.156053
 O         2.877375        -0.327679         2.311264
 C         2.242226        -0.804507         1.089118
 H        -0.497563         0.628865         0.917098
 H        -0.539711         0.339166        -0.779473
 H        -0.342587        -1.104321         0.146638
 H         2.688549         1.679718        -0.827071
 H         2.779295         1.730955         1.005441
 H         2.363777        -0.091321        -1.967310
 H         2.096655        -1.774825        -1.049409
 H         4.818552        -0.485925         2.828077
 H         4.437634         1.135598         2.263341
 H         2.145882        -1.783899         0.984512
