19
Iteration:  3114charge 0 multiplicity 1
 C        -0.082578        -0.094553         0.018088
 C         1.346213        -0.058578         0.105083
 C         2.349628         1.138964         0.101542
 C         3.251125        -0.108629         0.157814
 C         2.383245        -0.711403        -0.986618
 O         4.582607        -0.261080         0.687297
 C         4.224739        -0.213805         2.101153
 O         2.808003        -0.167028         2.322475
 C         2.291729        -0.730546         1.104229
 H        -0.609625         0.331128         0.958798
 H        -0.474488         0.190702        -1.005779
 H        -0.372122        -1.229862         0.044724
 H         2.282907         1.980221        -0.565146
 H         2.415166         1.687149         1.055978
 H         2.401995        -0.072483        -1.894384
 H         2.442710        -1.766355        -0.988533
 H         4.657903        -1.143563         2.543189
 H         4.615022         0.687908         2.615945
 H         2.136661        -1.812428         1.074144
