19
Iteration:  1571charge 0 multiplicity 1
 C        -0.147976         0.032531         0.194814
 C         1.439055        -0.045735         0.063498
 C         2.424694         1.196988         0.143927
 C         3.311521        -0.245899         0.117994
 C         2.320011        -0.729116        -1.033308
 O         4.587380        -0.378374         0.721321
 C         4.215395         0.031301         1.953686
 O         2.754608        -0.366331         2.392050
 C         2.306109        -0.787704         1.083891
 H        -0.571997         0.745847         0.955080
 H        -0.515131         0.478405        -0.757751
 H        -0.584288        -0.967967         0.095723
 H         2.531048         1.883701        -0.816252
 H         2.369606         1.818889         1.071764
 H         2.357015        -0.064419        -1.963138
 H         2.190359        -1.822466        -1.166924
 H         4.931190        -0.260846         2.731646
 H         4.231064         1.109280         1.916875
 H         2.081316        -1.794160         1.042463
