19
Iteration:   987charge 0 multiplicity 1
 C        -0.270121        -0.053858         0.013876
 C         1.342432        -0.042989         0.100807
 C         2.390629         1.187113         0.095687
 C         3.192741        -0.117972         0.168562
 C         2.236312        -0.638734        -0.956499
 O         4.549380        -0.203603         0.645456
 C         4.400381        -0.267949         2.060884
 O         2.908232        -0.267781         2.404210
 C         2.382852        -0.786164         1.137221
 H        -0.886779         0.404383         0.821547
 H        -0.619142         0.322671        -1.035465
 H        -0.538112        -1.151138        -0.121300
 H         2.419973         1.608326        -0.899553
 H         2.556672         1.901594         0.984426
 H         2.404450        -0.031202        -1.800858
 H         2.351214        -1.729396        -1.147755
 H         4.724012        -1.266870         2.471906
 H         4.793988         0.605682         2.571226
 H         2.285309        -1.815802         1.132159
