19
Iteration:  4464
 C        -0.079739         0.054201        -0.092236
 C         1.377607        -0.065900         0.129208
 C         2.392353         1.075458         0.153099
 C         3.230198        -0.202152         0.124858
 C         2.375115        -0.750397        -0.900595
 O         4.534483        -0.180551         0.687033
 C         4.346510         0.020729         2.038173
 O         2.743813        -0.362664         2.342258
 C         2.268462        -0.872104         1.159752
 H        -0.604498         0.553855         0.769005
 H        -0.435824         0.713898        -0.957411
 H        -0.582010        -0.886856        -0.013513
 H         2.384649         1.812868        -0.661431
 H         2.430248         1.529758         1.153163
 H         2.262136        -0.174387        -1.816414
 H         2.530312        -1.934944        -0.938326
 H         5.044023        -0.524565         2.686915
 H         4.472030         1.085918         2.121457
 H         2.033249        -1.953393         1.054955
