19
Iteration:  4036charge 0 multiplicity 1
 C        -0.115631        -0.138619         0.075996
 C         1.436996        -0.086247         0.062911
 C         2.390702         1.186843         0.027035
 C         3.199918        -0.147976         0.160699
 C         2.432954        -0.759808        -1.003240
 O         4.570126        -0.049572         0.737108
 C         4.167336        -0.409145         2.116561
 O         2.808243        -0.120063         2.275284
 C         2.238836        -0.690266         1.178377
 H        -0.387962         0.198829         1.157035
 H        -0.462832         0.583864        -0.666425
 H        -0.410255        -1.154977        -0.148779
 H         2.530345         1.726601        -0.922984
 H         2.362441         1.631404         1.014422
 H         2.305643        -0.390624        -1.977077
 H         2.481561        -1.778159        -1.069492
 H         4.546723        -1.431365         2.062049
 H         4.694101         0.314490         2.742970
 H         2.185429        -1.772870         1.402494
