19
Iteration:   931charge 0 multiplicity 1
 C        -0.207657         0.162798         0.140780
 C         1.346583        -0.159150         0.076366
 C         2.314477         1.067333         0.147057
 C         3.250659        -0.192811         0.111825
 C         2.377439        -0.718958        -1.080005
 O         4.523810        -0.162893         0.631178
 C         4.264820        -0.059872         2.130136
 O         2.899937        -0.392104         2.353697
 C         2.381829        -0.865192         1.083983
 H        -0.365509         0.862436         0.954539
 H        -0.553335         0.775546        -0.753853
 H        -0.875463        -0.767825         0.458771
 H         2.388098         1.598587        -0.808775
 H         2.468807         1.757525         1.068984
 H         2.308339        -0.131516        -1.947762
 H         2.336868        -1.780650        -1.298219
 H         4.921945        -0.680451         2.848266
 H         4.452557         0.957551         2.472348
 H         2.316186        -1.875954         1.134385
