19
Iteration:  1962charge 0 multiplicity 1
 C        -0.137599         0.024577         0.078944
 C         1.390795        -0.036589         0.108284
 C         2.344685         1.083727         0.073881
 C         3.201558        -0.203839         0.132166
 C         2.362338        -0.763246        -0.978533
 O         4.603822        -0.142088         0.624213
 C         4.242845        -0.277463         2.127499
 O         2.856722        -0.183683         2.351745
 C         2.275058        -0.753884         1.130153
 H        -0.691487         0.447266         0.968001
 H        -0.599614         0.719742        -0.690370
 H        -0.596816        -0.974145        -0.036072
 H         2.474731         1.501627        -1.014965
 H         2.573109         1.777772         0.888520
 H         2.575831        -0.273640        -1.911129
 H         2.036266        -1.831415        -1.042462
 H         4.835500        -1.149918         2.499414
 H         4.636287         0.585992         2.681358
 H         2.148173        -1.809734         1.186098
