19
Iteration:  2366
 C        -0.147061         0.028888        -0.016749
 C         1.356720        -0.117743         0.143678
 C         2.401815         1.088044         0.035008
 C         3.237350        -0.125947         0.156141
 C         2.258416        -0.762295        -0.923150
 O         4.553840        -0.136014         0.651848
 C         4.261188        -0.237075         2.071151
 O         2.869217        -0.252278         2.404670
 C         2.355914        -0.736960         1.170320
 H        -0.684349         0.759727         0.667967
 H        -0.314334         0.389118        -1.104708
 H        -0.574383        -1.025740        -0.114911
 H         2.235101         1.648876        -0.849979
 H         2.496774         1.817854         0.833164
 H         2.284471        -0.262581        -1.927915
 H         2.434101        -1.818327        -1.044072
 H         4.829781        -1.114784         2.535239
 H         4.428690         0.704443         2.563191
 H         2.318956        -1.870833         1.120591
