19
Iteration:  1504charge 0 multiplicity 1
 C        -0.181339         0.050167        -0.037227
 C         1.342468        -0.022974         0.119283
 C         2.365853         1.156503         0.136426
 C         3.263895        -0.177871         0.117309
 C         2.290513        -0.795320        -0.928064
 O         4.521807        -0.198696         0.673116
 C         4.278406        -0.188634         2.050034
 O         2.919333        -0.267984         2.354361
 C         2.346582        -0.816064         1.178205
 H        -0.749653         0.554955         0.850526
 H        -0.341989         0.648247        -0.954681
 H        -0.520688        -0.897347        -0.374339
 H         2.370384         1.725551        -0.851360
 H         2.485733         1.870162         1.054828
 H         2.112886        -0.230497        -1.948984
 H         2.170490        -1.908955        -1.020861
 H         4.916597        -0.994778         2.493039
 H         4.631619         0.733391         2.564000
 H         2.306477        -1.849673         1.332545
