19
Iteration:  3113charge 0 multiplicity 1
 C        -0.082530        -0.094874         0.019794
 C         1.347961        -0.059095         0.107455
 C         2.349116         1.134940         0.108222
 C         3.242567        -0.100791         0.154215
 C         2.390526        -0.718590        -0.989512
 O         4.574197        -0.264905         0.682098
 C         4.225234        -0.209256         2.105243
 O         2.807773        -0.170349         2.319768
 C         2.290761        -0.721576         1.103446
 H        -0.570478         0.336396         0.957037
 H        -0.432048         0.182853        -1.008835
 H        -0.363046        -1.245387         0.058296
 H         2.273684         2.003865        -0.607489
 H         2.449354         1.703378         1.068949
 H         2.401486        -0.051891        -1.901312
 H         2.449489        -1.762574        -0.988372
 H         4.646718        -1.171905         2.558795
 H         4.626839         0.682014         2.647309
 H         2.156808        -1.821848         1.089831
