19
Iteration:  3603
 C        -0.139571         0.033924        -0.017906
 C         1.378759        -0.089799         0.097985
 C         2.359587         1.072902         0.099771
 C         3.191502        -0.146777         0.106149
 C         2.424284        -0.717787        -1.020630
 O         4.563558        -0.155251         0.693837
 C         4.287235        -0.087387         2.044839
 O         2.778238        -0.381115         2.444580
 C         2.330477        -0.772017         1.169913
 H        -0.615768         0.790462         0.594424
 H        -0.320151         0.079515        -1.067580
 H        -0.736072        -0.867171         0.376699
 H         2.505209         1.753861        -0.746904
 H         2.313224         1.697650         1.006539
 H         2.472286        -0.174721        -1.931887
 H         2.264351        -1.824573        -1.224411
 H         4.790004        -0.819935         2.758534
 H         4.356613         1.044961         2.325533
 H         2.428901        -1.962516         1.149835
