19
Iteration:  2063charge 0 multiplicity 1
 C        -0.100898         0.084496         0.035163
 C         1.394109        -0.054795         0.098530
 C         2.236832         1.086639         0.052340
 C         3.218865        -0.103135         0.160921
 C         2.354947        -0.835309        -0.970123
 O         4.611833        -0.142907         0.606420
 C         4.340320        -0.333325         2.075455
 O         2.819055        -0.223271         2.418314
 C         2.265794        -0.704049         1.186387
 H        -0.393510         0.880421         0.715239
 H        -0.467664         0.322430        -1.017903
 H        -0.645037        -0.903866         0.280180
 H         2.328453         1.688021        -0.861156
 H         2.196382         1.742374         0.943987
 H         2.448251        -0.387808        -2.008496
 H         2.235534        -1.934374        -0.951179
 H         4.640668        -1.288773         2.366697
 H         4.795832         0.539741         2.545951
 H         2.362884        -1.824457         1.142706
