19
Iteration:  3481charge 0 multiplicity 1
 C        -0.111752        -0.001910        -0.036007
 C         1.412519        -0.096370         0.115214
 C         2.360738         1.100730         0.109676
 C         3.251365        -0.127051         0.177987
 C         2.355832        -0.701699        -1.065443
 O         4.493806        -0.244029         0.657827
 C         4.330147        -0.056893         2.129437
 O         2.815282        -0.295276         2.386342
 C         2.263420        -0.794335         1.169377
 H        -0.680694         0.243110         0.848314
 H        -0.442732         0.532523        -0.935657
 H        -0.512385        -1.093613        -0.169225
 H         2.253457         1.700648        -0.791288
 H         2.367789         1.612980         1.052301
 H         2.479925        -0.147193        -2.012272
 H         2.345741        -1.735263        -1.112423
 H         4.932713        -0.856402         2.650266
 H         4.671489         1.027587         2.364143
 H         2.205038        -1.870696         1.411322
