19
Iteration:   774charge 0 multiplicity 1
 C        -0.160822        -0.069329         0.155830
 C         1.336218        -0.020536         0.077112
 C         2.266589         1.179649        -0.063005
 C         3.231999        -0.064962         0.083462
 C         2.351188        -0.746982        -1.048414
 O         4.549787        -0.073123         0.736307
 C         4.292038        -0.528436         2.081142
 O         2.907732        -0.228947         2.465618
 C         2.358434        -0.649758         1.145304
 H        -0.655151         0.756700         0.816573
 H        -0.465421         0.098230        -0.900543
 H        -0.494054        -1.165679         0.319277
 H         2.287324         1.647737        -1.152680
 H         2.305466         1.988932         0.682404
 H         2.366008        -0.195340        -1.985746
 H         2.292308        -1.790504        -1.146558
 H         4.828901        -1.538887         2.193928
 H         4.805364         0.194889         2.834767
 H         2.217344        -1.692910         1.151469
