19
Iteration:   994charge 0 multiplicity 1
 C        -0.209905        -0.105645        -0.021766
 C         1.328401        -0.013659         0.070607
 C         2.358624         1.178088         0.129435
 C         3.202453        -0.120594         0.157542
 C         2.263897        -0.612836        -0.956045
 O         4.551918        -0.240988         0.636970
 C         4.410969        -0.320129         2.087627
 O         2.882636        -0.224645         2.380465
 C         2.375669        -0.721581         1.192259
 H        -0.645720         0.190563         0.897915
 H        -0.640542         0.294414        -0.896556
 H        -0.518436        -1.220639        -0.032570
 H         2.291700         1.652899        -0.862505
 H         2.398479         1.883724         0.937239
 H         2.314027         0.080124        -1.821474
 H         2.056059        -1.632158        -1.144932
 H         4.798882        -1.255213         2.514870
 H         5.036146         0.556868         2.355247
 H         2.113040        -1.843646         1.074555
