19
Iteration:  1121
 C        -0.195853         0.067444         0.092396
 C         1.401614        -0.130456         0.077180
 C         2.294061         1.139718         0.152539
 C         3.236287        -0.090835         0.152149
 C         2.378477        -0.753115        -1.085799
 O         4.472892        -0.147813         0.676934
 C         4.296373        -0.270796         2.079150
 O         2.923056        -0.281139         2.368562
 C         2.355862        -0.844213         1.139696
 H        -0.330884         0.967741         0.884991
 H        -0.555447         0.627959        -0.855617
 H        -0.865557        -0.738401         0.372767
 H         2.391767         1.891141        -0.708522
 H         2.047899         1.660117         1.055811
 H         2.300503        -0.072361        -1.980541
 H         2.490126        -1.817228        -1.413201
 H         4.811396        -1.227833         2.413461
 H         4.756585         0.682310         2.423808
 H         2.332558        -1.871915         1.007211
