19
Iteration:   428
 C        -0.117263         0.067005         0.149533
 C         1.329138        -0.083110         0.098494
 C         2.419464         1.121419         0.149858
 C         3.221330        -0.223005         0.134506
 C         2.322562        -0.658225        -1.066328
 O         4.602950        -0.375395         0.717968
 C         4.187685         0.131481         2.007890
 O         2.861547        -0.351247         2.333006
 C         2.270237        -0.907057         1.108541
 H        -0.169147         0.636302         1.075627
 H        -0.701353         0.418191        -0.760670
 H        -0.560088        -1.009598         0.132335
 H         2.515443         1.613000        -0.795966
 H         2.427188         1.818137         0.972361
 H         2.568535        -0.066854        -1.975656
 H         2.520727        -1.655911        -1.352104
 H         4.939550        -0.158678         2.865127
 H         4.283077         1.266070         1.994985
 H         2.059721        -1.975147         1.252866
