19
Iteration:  3550charge 0 multiplicity 1
 C        -0.136062         0.045537         0.059581
 C         1.407817        -0.065300         0.027001
 C         2.451068         1.149140         0.155902
 C         3.247493        -0.246460         0.091778
 C         2.360796        -0.716806        -1.047067
 O         4.552703        -0.223295         0.662497
 C         4.251787         0.073141         2.130846
 O         2.780468        -0.348743         2.411827
 C         2.306318        -0.901041         1.116262
 H        -0.549859         0.059205         1.097918
 H        -0.401576         0.678933        -0.803792
 H        -0.493639        -1.136361        -0.261137
 H         2.278969         1.622458        -0.835261
 H         2.367313         1.881894         0.995220
 H         2.407092        -0.115308        -1.924103
 H         2.297688        -1.875541        -1.033587
 H         4.781532        -0.553597         2.870519
 H         4.183609         1.160816         2.362049
 H         2.045846        -1.976765         1.144714
