19
Iteration:  4391
 C        -0.041285        -0.018944         0.043103
 C         1.397257        -0.027717         0.056806
 C         2.436129         1.147691         0.100876
 C         3.289250        -0.172849         0.107278
 C         2.412857        -0.778720        -0.992902
 O         4.507859        -0.281865         0.651298
 C         4.123622         0.030014         2.120382
 O         2.804224        -0.350313         2.403917
 C         2.264803        -0.775014         1.136365
 H        -0.435627         0.064102         1.008749
 H        -0.613230         0.744315        -0.530000
 H        -0.459199        -0.988133        -0.231462
 H         2.486283         1.798606        -0.850458
 H         2.429422         1.627457         1.071161
 H         2.280448        -0.195052        -1.835100
 H         2.266766        -1.847817        -1.115977
 H         4.897810        -0.590135         2.546140
 H         4.339019         1.137995         2.281859
 H         2.138431        -1.840440         1.122840
