19
Iteration:  4655charge 0 multiplicity 1
 C        -0.092925        -0.091313        -0.043332
 C         1.367986        -0.044438         0.082863
 C         2.293134         1.149225         0.177667
 C         3.227978        -0.200283         0.098355
 C         2.429208        -0.676536        -1.038962
 O         4.546309        -0.306949         0.669494
 C         4.284556        -0.153130         2.116287
 O         2.819456        -0.151758         2.425472
 C         2.278532        -0.791242         1.145017
 H        -0.565713         0.522526         0.746822
 H        -0.460855         0.381689        -0.939641
 H        -0.455814        -1.174988         0.151281
 H         2.406968         1.899278        -0.701448
 H         2.304169         1.871034         1.084374
 H         2.348590        -0.084083        -2.081630
 H         2.445103        -1.773310        -1.257175
 H         4.779281        -0.975991         2.546618
 H         4.751055         0.844756         2.409170
 H         2.047304        -1.825225         1.283690
