19
Iteration:  3611
 C        -0.160103        -0.035162        -0.007060
 C         1.377465        -0.115122         0.062605
 C         2.422498         1.161873         0.143689
 C         3.208044        -0.179513         0.157389
 C         2.362093        -0.705792        -1.042282
 O         4.567002        -0.176856         0.690193
 C         4.234363        -0.080255         2.082783
 O         2.817283        -0.353106         2.401369
 C         2.327646        -0.761521         1.171354
 H        -0.603524         0.908514         0.317632
 H        -0.535055         0.118905        -1.029163
 H        -0.610879        -0.910844         0.222106
 H         2.325651         1.639888        -0.824682
 H         2.417679         1.668481         1.103813
 H         2.459662        -0.141783        -1.988145
 H         2.397714        -1.793033        -1.146513
 H         4.987516        -0.759677         2.532155
 H         4.503823         0.878762         2.499963
 H         2.159711        -1.891420         1.244496
