19
Iteration:  3977charge 0 multiplicity 1
 C        -0.130286        -0.013909        -0.111687
 C         1.360431        -0.058787         0.115696
 C         2.284585         1.158883         0.080121
 C         3.238137        -0.160218         0.151441
 C         2.401977        -0.753991        -0.972772
 O         4.514310        -0.121494         0.685050
 C         4.362411        -0.237258         2.080485
 O         2.812863        -0.300934         2.405578
 C         2.337537        -0.746442         1.181036
 H        -0.583890         0.722075         0.589657
 H        -0.416930         0.151343        -1.201090
 H        -0.634255        -1.018831         0.229765
 H         2.208787         1.796441        -0.782155
 H         2.438750         1.842696         0.915608
 H         2.415262        -0.283347        -2.007136
 H         2.195410        -1.848071        -0.738086
 H         4.842341        -1.031109         2.617720
 H         4.521474         0.641179         2.678107
 H         2.435438        -1.814828         1.170279
