19
Iteration:  1178
 C        -0.114383        -0.202008         0.014026
 C         1.388122         0.103220         0.055617
 C         2.478087         1.230767         0.200274
 C         3.169405        -0.046947         0.189057
 C         2.267063        -0.578208        -0.991980
 O         4.489225        -0.422520         0.632021
 C         4.334668        -0.127149         1.961336
 O         2.877242        -0.356242         2.400431
 C         2.248429        -0.713530         1.165918
 H        -0.578227         0.092054         1.082201
 H        -0.720346         0.337216        -0.743769
 H        -0.267042        -1.312311        -0.281113
 H         2.565213         1.795940        -0.693421
 H         2.398346         1.654187         1.247229
 H         2.490130        -0.165914        -2.098512
 H         2.196756        -1.751092        -1.052865
 H         4.906779        -0.721557         2.720564
 H         4.590363         0.955612         2.247496
 H         2.210507        -1.764698         1.135071
