19
Iteration:  4737
 C        -0.113532         0.127496         0.051487
 C         1.380858        -0.136768         0.077947
 C         2.393692         1.133900         0.176610
 C         3.226522        -0.139487         0.110231
 C         2.401073        -0.808194        -1.054403
 O         4.597436        -0.202110         0.676359
 C         4.251820         0.062982         2.072831
 O         2.749989        -0.419949         2.389176
 C         2.281327        -0.867475         1.131383
 H        -0.499573         0.637309         0.931444
 H        -0.320653         0.755763        -0.946189
 H        -0.631967        -0.818621        -0.002754
 H         2.339894         1.739484        -0.752798
 H         2.192940         1.563212         1.124632
 H         2.475291        -0.382033        -2.061149
 H         2.376179        -1.979124        -1.080124
 H         5.044158        -0.489726         2.791293
 H         4.179018         1.112691         2.232609
 H         2.339250        -2.007253         1.136333
