19
Iteration:  2784
 C        -0.134091         0.075856         0.016275
 C         1.426503        -0.103060         0.111794
 C         2.370149         1.076825         0.125515
 C         3.275083        -0.187817         0.170749
 C         2.372414        -0.764741        -1.056424
 O         4.584330        -0.170426         0.709981
 C         4.171261        -0.056181         2.081983
 O         2.830510        -0.318729         2.389944
 C         2.284538        -0.815899         1.087063
 H        -0.513066         0.472664         0.886971
 H        -0.461248         0.544539        -0.846921
 H        -0.567889        -0.941444        -0.073665
 H         2.207727         1.622448        -0.778216
 H         2.390962         1.677130         0.996984
 H         2.293751        -0.005586        -1.846899
 H         2.163076        -1.833798        -1.319655
 H         4.864634        -0.781479         2.641989
 H         4.499622         0.933743         2.426147
 H         2.212993        -1.908884         1.087806
