19
Iteration:  1633charge 0 multiplicity 1
 C        -0.145454         0.060910        -0.000723
 C         1.311609        -0.087946         0.078745
 C         2.274919         1.180214         0.090344
 C         3.275956        -0.155173         0.180768
 C         2.341204        -0.778941        -0.948027
 O         4.579224        -0.295898         0.597035
 C         4.324075        -0.154664         2.178567
 O         2.867703        -0.256631         2.389353
 C         2.332900        -0.752116         1.072416
 H        -0.610723         0.644737         0.874637
 H        -0.339045         0.678427        -0.880917
 H        -0.642184        -0.885662         0.011483
 H         2.252602         1.702143        -0.795945
 H         2.128500         1.818984         0.983696
 H         2.375085        -0.322566        -1.955594
 H         2.272182        -1.842985        -0.949139
 H         4.870975        -1.007096         2.575112
 H         4.645212         0.873606         2.441396
 H         2.232163        -1.914576         1.300071
