19
Iteration:  2683
 C        -0.096895        -0.041628        -0.049667
 C         1.440864        -0.000996         0.106929
 C         2.274694         1.204199         0.181021
 C         3.231840        -0.161317         0.157322
 C         2.380804        -0.764229        -1.040453
 O         4.567587        -0.257005         0.648977
 C         4.251885        -0.209929         2.106272
 O         2.849998        -0.217138         2.383824
 C         2.214233        -0.791263         1.172878
 H        -0.490109         0.318382         0.883375
 H        -0.559075         0.519039        -0.923302
 H        -0.338379        -1.090940        -0.072937
 H         2.376767         1.702690        -0.831504
 H         2.265914         1.875195         1.097696
 H         2.583869        -0.230457        -1.969865
 H         2.534873        -1.895943        -1.117442
 H         5.030030        -0.847794         2.574353
 H         4.453768         0.921528         2.220535
 H         2.004784        -1.848080         1.219115
