19
Iteration:  4776
 C        -0.108841        -0.034895        -0.005929
 C         1.360227        -0.085148         0.101718
 C         2.404533         1.109424         0.148178
 C         3.161252        -0.183711         0.146985
 C         2.324340        -0.690975        -1.112307
 O         4.540786        -0.310757         0.737995
 C         4.289620         0.023162         2.112396
 O         2.880084        -0.282492         2.383014
 C         2.267818        -0.852064         1.122811
 H        -0.597282         0.150969         1.003355
 H        -0.411481         0.749033        -0.644974
 H        -0.477399        -0.891823        -0.607025
 H         2.646743         1.771886        -0.695369
 H         2.427796         1.810704         0.992069
 H         2.472682         0.025551        -1.955739
 H         2.234498        -1.712578        -1.200837
 H         4.870730        -0.440053         2.818085
 H         4.403241         1.177325         2.306022
 H         2.222604        -1.933973         1.099596
