19
Iteration:  2401
 C        -0.100475        -0.023528         0.060916
 C         1.402147        -0.071408        -0.014415
 C         2.343348         1.128211         0.109336
 C         3.247837        -0.140512         0.195782
 C         2.346622        -0.703894        -1.030977
 O         4.575949        -0.261345         0.625871
 C         4.244784        -0.234269         2.033745
 O         2.815634        -0.150139         2.401315
 C         2.261454        -0.733516         1.197600
 H        -0.632272         0.515952         0.819573
 H        -0.565245         0.197796        -0.973515
 H        -0.396030        -1.090134         0.500030
 H         2.282462         1.726257        -0.772534
 H         2.204864         1.497954         1.147896
 H         2.608642        -0.268808        -1.976850
 H         2.403427        -1.767077        -1.018580
 H         4.713261        -1.099587         2.605323
 H         4.755547         0.710257         2.434851
 H         2.325077        -1.829699         1.383838
