19
Iteration:   997charge 0 multiplicity 1
 C        -0.168656        -0.140746        -0.027070
 C         1.313421         0.009957         0.078351
 C         2.336164         1.173874         0.130488
 C         3.221950        -0.120602         0.149753
 C         2.283844        -0.605761        -0.976466
 O         4.552439        -0.259275         0.629036
 C         4.403976        -0.328802         2.088421
 O         2.884951        -0.208938         2.373291
 C         2.339518        -0.713628         1.213011
 H        -0.558042         0.190647         0.935550
 H        -0.673014         0.402937        -0.899839
 H        -0.471976        -1.274996        -0.000464
 H         2.305213         1.753364        -0.788691
 H         2.312978         1.916500         1.006616
 H         2.249550        -0.037973        -1.829906
 H         1.958609        -1.587039        -1.167338
 H         4.842930        -1.281303         2.515332
 H         5.029482         0.490692         2.374696
 H         2.161583        -1.713506         1.153422
