19
Iteration:  3859
 C        -0.120532         0.089659        -0.000372
 C         1.388026        -0.178190         0.105028
 C         2.356242         1.112946         0.062810
 C         3.240874        -0.188236         0.114379
 C         2.301679        -0.796059        -0.974904
 O         4.597218        -0.153031         0.750031
 C         4.261076        -0.008486         2.102365
 O         2.758600        -0.384859         2.334934
 C         2.356528        -0.797650         1.109323
 H        -0.443815         0.318477         1.037423
 H        -0.310871         0.909078        -0.627491
 H        -0.709033        -0.805523        -0.276865
 H         2.337695         1.865549        -0.746701
 H         2.340388         1.711320         1.004866
 H         2.375795        -0.195164        -1.911294
 H         2.443844        -1.801549        -0.938622
 H         4.998969        -0.687252         2.695948
 H         4.399402         1.099686         2.388037
 H         2.380174        -1.968949         1.005080
