19
Iteration:   472charge 0 multiplicity 1
 C        -0.101122        -0.025263         0.055206
 C         1.398708        -0.027365         0.121444
 C         2.321714         1.165725         0.115600
 C         3.243840        -0.085793         0.125209
 C         2.300601        -0.713304        -0.980818
 O         4.559620        -0.240705         0.656053
 C         4.287410        -0.235373         2.068426
 O         2.853495        -0.214591         2.340030
 C         2.328455        -0.808624         1.140815
 H        -0.557083         0.685338         0.749235
 H        -0.563619         0.137507        -1.006823
 H        -0.580244        -1.083306         0.121055
 H         2.372854         1.684346        -0.843679
 H         2.267697         1.820436         0.944574
 H         1.960101        -0.618827        -2.038255
 H         2.305278        -1.737043        -0.743779
 H         4.887986        -1.018349         2.691073
 H         4.573082         0.721326         2.579739
 H         2.288055        -1.886009         1.071731
