19
Iteration:  1329
 C        -0.203507        -0.112337        -0.058909
 C         1.401098         0.024696         0.103061
 C         2.496273         1.133230         0.252923
 C         3.153437        -0.193720         0.112867
 C         2.245860        -0.615132        -1.007750
 O         4.571125        -0.305715         0.571036
 C         4.319312        -0.165084         2.019947
 O         2.822795        -0.172521         2.439372
 C         2.327416        -0.807831         1.200634
 H        -0.668735         0.271746         0.901684
 H        -0.619959         0.463733        -0.848849
 H        -0.439293        -1.109787        -0.114914
 H         2.678888         1.775342        -0.647152
 H         2.422807         1.747415         1.228615
 H         2.346234        -0.053930        -1.949565
 H         2.399316        -1.630389        -1.102363
 H         4.737000        -1.088674         2.435215
 H         4.550515         0.768349         2.472756
 H         2.325298        -2.000604         1.197437
