19
Iteration:  3182
 C        -0.168184         0.081814        -0.026165
 C         1.386401        -0.071148         0.069572
 C         2.306762         1.121680         0.097898
 C         3.200466        -0.106351         0.124679
 C         2.377097        -0.800300        -0.952414
 O         4.557765        -0.200112         0.652134
 C         4.262895        -0.053513         2.139535
 O         2.865476        -0.344124         2.372364
 C         2.308153        -0.881928         1.129818
 H        -0.539466         0.337929         1.027723
 H        -0.330391         0.789026        -0.886830
 H        -0.489051        -0.890406        -0.330741
 H         2.290903         1.844829        -0.657765
 H         2.250621         1.534543         1.077874
 H         2.618235        -0.336547        -1.818041
 H         2.523793        -1.878657        -0.908601
 H         4.866019        -0.638650         2.774230
 H         4.378721         1.016789         2.379926
 H         2.487297        -1.902961         1.166282
