19
Iteration:  3015charge 0 multiplicity 1
 C        -0.196869         0.015013        -0.033965
 C         1.321620        -0.098802         0.026383
 C         2.260711         1.132851         0.095211
 C         3.255724        -0.098718         0.126000
 C         2.444134        -0.820644        -1.009932
 O         4.558038        -0.111038         0.718691
 C         4.285950        -0.286588         2.126844
 O         2.919726        -0.178774         2.395119
 C         2.264460        -0.794077         1.174904
 H        -0.614737         0.491651         0.985340
 H        -0.253300         0.675879        -0.943796
 H        -0.644216        -1.081578        -0.257573
 H         2.235367         1.831089        -0.716746
 H         2.295200         1.726274         0.988799
 H         2.468905        -0.260004        -2.011309
 H         2.511174        -1.870825        -1.000148
 H         4.612557        -1.298860         2.321898
 H         4.871913         0.379134         2.761230
 H         2.159479        -1.881055         1.201937
