19
Iteration:  2438
 C        -0.189172        -0.070079         0.103330
 C         1.348257         0.016283         0.108213
 C         2.377574         1.130949         0.018530
 C         3.271477        -0.108674         0.082872
 C         2.344019        -0.720136        -1.008660
 O         4.589701        -0.253363         0.735413
 C         4.255961        -0.195382         2.128161
 O         2.835466        -0.239882         2.307306
 C         2.337007        -0.752712         1.161301
 H        -0.712286         0.429638         0.929384
 H        -0.592635         0.246046        -0.801603
 H        -0.260703        -1.096669         0.046903
 H         2.400266         1.846956        -0.911119
 H         2.271241         1.840533         0.870878
 H         2.456985        -0.381494        -2.058543
 H         2.100171        -1.812461        -1.009909
 H         4.597412        -1.080723         2.654465
 H         4.669843         0.788499         2.626885
 H         2.243413        -1.832948         1.058510
