19
Iteration:  4195
 C        -0.079148        -0.027489         0.049904
 C         1.391801        -0.012469         0.102049
 C         2.446240         1.151130         0.104990
 C         3.300241        -0.220253         0.107296
 C         2.358874        -0.735662        -0.992196
 O         4.531538        -0.270559         0.727934
 C         4.213244         0.052504         2.054469
 O         2.738549        -0.331854         2.402124
 C         2.337356        -0.848020         1.079663
 H        -0.454711         0.323847         0.966593
 H        -0.574737         0.597288        -0.724965
 H        -0.651200        -0.996109        -0.187372
 H         2.375125         1.853714        -0.761652
 H         2.405816         1.725827         1.074228
 H         2.394682        -0.421389        -2.001682
 H         2.107420        -1.777783        -1.271945
 H         4.856024        -0.534996         2.786810
 H         4.228992         1.194447         2.234121
 H         2.284854        -1.993523         0.948868
