19
Iteration:  2241charge 0 multiplicity 1
 C        -0.116695         0.050729         0.085764
 C         1.377158        -0.023984         0.047447
 C         2.331094         1.176625         0.010055
 C         3.237158        -0.114785         0.146618
 C         2.358572        -0.761305        -1.000486
 O         4.485691        -0.269924         0.676529
 C         4.334492        -0.073677         2.122566
 O         2.885304        -0.394030         2.385111
 C         2.251645        -0.822700         1.154362
 H        -0.557147         0.836904         0.864511
 H        -0.298186         0.469838        -0.896651
 H        -0.629362        -0.914343         0.267447
 H         2.449491         1.678341        -0.949831
 H         2.244068         1.957577         0.795721
 H         2.476032        -0.371607        -2.030651
 H         2.463349        -1.906086        -0.929591
 H         5.022391        -0.686585         2.704487
 H         4.476155         0.992201         2.339947
 H         2.049581        -1.956022         1.266872
