19
Iteration:  3496
 C        -0.147061        -0.085633        -0.031506
 C         1.336721        -0.022777         0.029954
 C         2.295112         1.174070         0.177713
 C         3.225390        -0.222483         0.151980
 C         2.406892        -0.694480        -0.944352
 O         4.586659        -0.345357         0.698067
 C         4.247289        -0.031902         2.051091
 O         2.875865        -0.248382         2.372588
 C         2.319007        -0.777946         1.126780
 H        -0.431904         0.272573         0.971466
 H        -0.505553         0.738050        -0.666543
 H        -0.454238        -1.077022        -0.460230
 H         2.500327         1.778934        -0.731053
 H         2.170566         1.762948         1.120483
 H         2.416365        -0.097251        -1.841238
 H         2.316107        -1.827826        -1.206105
 H         4.828599        -0.624893         2.740698
 H         4.344198         0.958783         2.402200
 H         2.132350        -1.801715         1.015094
