19
Iteration:   356charge 0 multiplicity 1
 C        -0.163946         0.046495        -0.017351
 C         1.364057        -0.093698         0.076468
 C         2.292767         1.165820         0.084685
 C         3.196351        -0.136278         0.120458
 C         2.352565        -0.801105        -1.076620
 O         4.529732        -0.191812         0.631638
 C         4.349955        -0.199891         2.132313
 O         2.916788        -0.245467         2.455648
 C         2.307068        -0.787221         1.249388
 H        -0.532612         0.407368         0.927025
 H        -0.474210         0.774136        -0.852117
 H        -0.596701        -0.901853        -0.280411
 H         2.163344         1.924445        -0.844427
 H         2.341838         1.759388         0.995547
 H         2.179026        -0.303921        -2.042889
 H         2.267047        -1.984762        -1.249333
 H         4.723854        -1.110224         2.560547
 H         4.858727         0.680019         2.460094
 H         2.456229        -1.920965         1.315220
