19
Iteration:  3834charge 0 multiplicity 1
 C        -0.102427         0.002044        -0.054596
 C         1.381436        -0.099453         0.077668
 C         2.305249         1.110077         0.126903
 C         3.218843        -0.182352         0.172511
 C         2.413567        -0.707163        -1.027829
 O         4.502833        -0.225566         0.639616
 C         4.219673        -0.067957         2.146083
 O         2.871526        -0.285763         2.397782
 C         2.325777        -0.796946         1.153240
 H        -0.423819         0.501801         0.853000
 H        -0.513434         0.634388        -0.961866
 H        -0.593688        -1.062214         0.064699
 H         2.256241         1.784656        -0.704961
 H         2.334581         1.751948         1.002702
 H         2.675365        -0.204511        -1.952803
 H         2.413853        -1.810268        -0.902262
 H         4.839424        -0.902943         2.512123
 H         4.616058         0.954463         2.396117
 H         2.173120        -1.912423         1.180792
