19
Iteration:  3991
 C        -0.121359        -0.013676        -0.059500
 C         1.349062        -0.094057         0.056099
 C         2.275125         1.175653         0.061480
 C         3.237236        -0.006457         0.155396
 C         2.335934        -0.850167        -0.944698
 O         4.570209        -0.095831         0.740256
 C         4.349164        -0.276407         2.166269
 O         2.849436        -0.267233         2.382314
 C         2.315516        -0.776056         1.118730
 H        -0.620152         0.850186         0.613078
 H        -0.365673         0.345031        -1.028868
 H        -0.602608        -1.013645         0.108810
 H         2.346386         1.631734        -0.935353
 H         2.024028         1.749249         0.949324
 H         2.319203        -0.494022        -1.987263
 H         2.518944        -1.843116        -1.045473
 H         4.714048        -1.342189         2.279840
 H         4.843416         0.558018         2.621242
 H         2.136750        -1.875151         1.039295
