19
Iteration:  3225charge 0 multiplicity 1
 C        -0.128265        -0.032367         0.043938
 C         1.441942        -0.010461         0.096575
 C         2.418618         1.118798         0.141751
 C         3.306375        -0.216073         0.180139
 C         2.374376        -0.651451        -1.013522
 O         4.507863        -0.298592         0.695382
 C         4.170749         0.020168         2.033616
 O         2.783285        -0.321860         2.361292
 C         2.359567        -0.833779         1.095506
 H        -0.790174         0.563059         0.855212
 H        -0.424879         0.144833        -1.052771
 H        -0.344609        -1.087027         0.210707
 H         2.490383         1.647255        -0.743883
 H         2.287539         1.590287         1.071083
 H         2.199835        -0.040881        -1.826573
 H         2.213224        -1.702920        -1.249298
 H         4.875433        -0.515984         2.651506
 H         4.223362         1.130597         2.266991
 H         2.208687        -1.889732         1.188985
