19
Iteration:  2434
 C        -0.179160        -0.063135         0.124654
 C         1.357818         0.013697         0.129479
 C         2.375699         1.177748         0.003020
 C         3.260675        -0.111646         0.107959
 C         2.353630        -0.717077        -1.039942
 O         4.567057        -0.264201         0.748523
 C         4.245241        -0.204293         2.151599
 O         2.860364        -0.223858         2.297212
 C         2.293536        -0.778382         1.127116
 H        -0.765166         0.429513         0.879141
 H        -0.612105         0.200637        -0.899920
 H        -0.331646        -1.235714         0.055769
 H         2.252945         1.799298        -0.839121
 H         2.390960         1.917233         0.828752
 H         2.578915        -0.408125        -2.030503
 H         2.245759        -1.791814        -0.974869
 H         4.723751        -1.106702         2.617906
 H         4.736803         0.756059         2.411334
 H         2.366768        -1.893876         1.188678
