19
Iteration:  3521charge 0 multiplicity 1
 C        -0.134078        -0.096755         0.014690
 C         1.361041        -0.054563         0.055981
 C         2.441087         1.149544         0.197325
 C         3.273008        -0.174215         0.074652
 C         2.374428        -0.696756        -0.988399
 O         4.487522        -0.383168         0.720901
 C         4.298333         0.080685         2.062851
 O         2.788580        -0.298303         2.387380
 C         2.309760        -0.769445         1.097293
 H        -0.542153        -0.017465         1.051275
 H        -0.602623         0.727146        -0.565330
 H        -0.226871        -0.949521        -0.518870
 H         2.366673         1.825059        -0.668451
 H         2.381950         1.664706         1.160983
 H         2.263334        -0.081319        -1.947322
 H         2.383935        -1.764907        -1.200560
 H         4.881305        -0.424800         2.825068
 H         4.367112         1.156969         2.250236
 H         2.140699        -1.848062         0.923731
