19
Iteration:  4721charge 0 multiplicity 1
 C        -0.099263         0.052754        -0.008362
 C         1.414649        -0.049887         0.058891
 C         2.377943         1.060150         0.102444
 C         3.252214        -0.227283         0.136573
 C         2.312791        -0.719115        -0.969542
 O         4.489241        -0.157179         0.753889
 C         4.194236         0.039301         2.102583
 O         2.875384        -0.412080         2.348094
 C         2.348348        -0.876178         1.074567
 H        -0.368173         0.757107         0.820661
 H        -0.413456         0.582221        -0.833167
 H        -0.599981        -0.874090         0.360560
 H         2.586491         1.636347        -0.878521
 H         2.594716         1.681703         1.028201
 H         2.240217        -0.236711        -1.999148
 H         2.279311        -1.770476        -1.192064
 H         4.771748        -0.579282         2.679100
 H         4.221763         1.123513         2.459041
 H         2.157212        -1.921988         1.171463
