19
Iteration:  4503charge 0 multiplicity 1
 C        -0.139349        -0.075259        -0.054605
 C         1.325540        -0.076360         0.008557
 C         2.328309         1.203038         0.044533
 C         3.242953        -0.114130         0.165084
 C         2.326856        -0.649536        -1.008821
 O         4.557846        -0.282799         0.731468
 C         4.349625        -0.182259         2.122513
 O         2.836421        -0.261005         2.400404
 C         2.293126        -0.733965         1.191281
 H        -0.498502         0.682308         0.712694
 H        -0.580408        -0.133510        -0.996281
 H        -0.385353        -1.102179         0.406391
 H         2.360545         1.584084        -1.006357
 H         2.331742         1.814712         0.997185
 H         2.588584        -0.141239        -1.994550
 H         2.432671        -1.660935        -1.165227
 H         4.890374        -1.047524         2.620069
 H         4.605977         0.778305         2.687333
 H         2.133804        -1.873504         1.221378
