19
Iteration:   636
 C        -0.165957         0.140527         0.091859
 C         1.406759        -0.075758         0.122004
 C         2.357636         1.057033         0.128286
 C         3.224153        -0.274455         0.119636
 C         2.275479        -0.675176        -1.162572
 O         4.599301        -0.330160         0.703217
 C         4.159017         0.189456         2.040013
 O         2.944460        -0.458826         2.447849
 C         2.374772        -0.868073         1.146483
 H        -0.469402         0.740028         0.898223
 H        -0.550175         0.566510        -0.875993
 H        -0.762013        -0.842564         0.015376
 H         2.459749         1.772516        -0.702456
 H         2.396220         1.618659         1.004069
 H         2.348990         0.060414        -2.128116
 H         1.925858        -1.721036        -1.357270
 H         4.925923        -0.189550         2.751181
 H         4.070740         1.296860         2.164997
 H         2.295000        -1.963485         1.203393
