19
Iteration:  2521
 C        -0.107210         0.001781        -0.027497
 C         1.377525        -0.013064         0.020554
 C         2.344251         1.168228         0.112279
 C         3.216512        -0.196550         0.146132
 C         2.284281        -0.782419        -0.980098
 O         4.477472        -0.203927         0.701076
 C         4.346667        -0.171166         2.098847
 O         2.888008        -0.247200         2.397308
 C         2.352658        -0.773209         1.147594
 H        -0.537650         0.368890         0.911955
 H        -0.523020         0.561116        -0.949404
 H        -0.611371        -1.103221        -0.019018
 H         2.303934         1.772497        -0.753564
 H         2.276176         1.684628         1.080566
 H         2.418848        -0.217787        -1.931022
 H         2.267764        -1.891609        -1.172393
 H         4.700054        -0.988850         2.813332
 H         4.659002         0.813130         2.378980
 H         2.338493        -1.925798         1.067698
