19
Iteration:  4593charge 0 multiplicity 1
 C        -0.179109        -0.012397         0.004133
 C         1.395463        -0.127703         0.014913
 C         2.352917         1.205542        -0.049077
 C         3.224094        -0.085659         0.205404
 C         2.387567        -0.812632        -0.898217
 O         4.500924        -0.061297         0.692107
 C         4.307680        -0.330815         2.089773
 O         2.839917        -0.229435         2.424164
 C         2.289627        -0.760409         1.124435
 H        -0.359737         0.201576         1.117153
 H        -0.507620         0.772402        -0.677930
 H        -0.699277        -0.840355        -0.449306
 H         2.772377         1.627174        -0.995662
 H         2.247544         1.892965         0.794193
 H         2.401627        -0.442256        -1.901419
 H         2.592394        -1.850377        -0.834475
 H         4.679216        -1.403354         2.363891
 H         4.773612         0.350588         2.802968
 H         2.217488        -1.902505         1.238917
