19
Iteration:  3179charge 0 multiplicity 1
 C        -0.143529         0.081463        -0.038236
 C         1.385784        -0.067738         0.090355
 C         2.283851         1.159052         0.099560
 C         3.176363        -0.106447         0.152708
 C         2.378659        -0.803729        -0.933960
 O         4.583343        -0.201969         0.627348
 C         4.259652        -0.051542         2.126171
 O         2.846624        -0.351536         2.372102
 C         2.311115        -0.877464         1.126559
 H        -0.497013         0.319796         1.001990
 H        -0.310609         0.841004        -0.817149
 H        -0.503093        -0.950892        -0.340360
 H         2.252809         1.727323        -0.902359
 H         2.309600         1.468543         1.162475
 H         2.703928        -0.407028        -1.936027
 H         2.519703        -1.850224        -0.920958
 H         4.888169        -0.709170         2.809125
 H         4.371694         1.018649         2.480278
 H         2.473246        -1.951441         1.205200
