19
Iteration:  3104
 C        -0.089801        -0.153230         0.033892
 C         1.423464        -0.047789         0.107626
 C         2.337037         1.211556         0.171185
 C         3.205691        -0.071347         0.079719
 C         2.454260        -0.737122        -1.011920
 O         4.462793        -0.275210         0.640776
 C         4.242301        -0.215899         2.169456
 O         2.797115        -0.194996         2.317958
 C         2.300136        -0.692178         1.134046
 H        -0.453702         0.625731         0.826906
 H        -0.323954         0.345048        -0.954479
 H        -0.396986        -1.232543         0.220826
 H         2.360894         1.558997        -0.802971
 H         2.499705         1.755532         1.080054
 H         2.416222        -0.277240        -2.019409
 H         2.439910        -1.800736        -1.191650
 H         4.561068        -1.170344         2.550868
 H         4.745288         0.603590         2.699520
 H         2.423626        -1.751774         1.253805
