19
Iteration:  1154charge 0 multiplicity 1
 C        -0.151608        -0.183016         0.020045
 C         1.383264         0.091562         0.237522
 C         2.428366         1.284992         0.234560
 C         3.267808        -0.185044         0.113107
 C         2.300810        -0.634283        -1.007747
 O         4.559791        -0.354994         0.601329
 C         4.228248        -0.197252         2.029685
 O         2.873099        -0.256304         2.338130
 C         2.293462        -0.746578         1.103430
 H        -0.878689         0.269840         0.878707
 H        -0.533753         0.240920        -0.978410
 H        -0.289011        -1.260480        -0.094660
 H         2.521032         1.903599        -0.717060
 H         2.381226         1.736401         1.217225
 H         2.193109         0.002148        -1.927629
 H         2.082598        -1.693138        -1.242280
 H         4.901057        -0.938092         2.584918
 H         4.525486         0.802680         2.465979
 H         2.085780        -1.793276         1.227371
