19
Iteration:  4966
 C        -0.142534        -0.116678        -0.060416
 C         1.409052        -0.039525         0.099561
 C         2.434671         1.180309         0.170509
 C         3.240731        -0.139645         0.125017
 C         2.363693        -0.783935        -0.967558
 O         4.551570        -0.161664         0.675977
 C         4.233494        -0.277653         2.081230
 O         2.859255        -0.126174         2.323905
 C         2.200379        -0.803494         1.161146
 H        -0.625079         0.238942         0.957963
 H        -0.430892         0.675213        -0.835111
 H        -0.481601        -1.047056        -0.484767
 H         2.423502         1.843026        -0.717207
 H         2.631618         1.705191         1.201678
 H         2.265193        -0.224405        -1.827945
 H         2.190217        -1.862964        -0.961061
 H         4.720376        -1.115180         2.607181
 H         4.581092         0.703174         2.590261
 H         2.194110        -1.882209         1.367238
