19
Iteration:    85charge 0 multiplicity 1
 C        -0.173216        -0.068580         0.051502
 C         1.341117        -0.012804         0.087067
 C         2.351458         1.168608        -0.028749
 C         3.232653        -0.155912         0.132691
 C         2.375043        -0.767149        -1.033681
 O         4.491463        -0.024057         0.746819
 C         4.338493        -0.401581         2.041903
 O         2.950906        -0.246152         2.462778
 C         2.251544        -0.696444         1.153863
 H        -0.667486         0.691876         0.877548
 H        -0.471252         0.378595        -0.890314
 H        -0.708632        -1.003610         0.162740
 H         2.366999         1.497889        -1.065574
 H         2.459873         1.836153         0.783577
 H         2.418225        -0.280960        -1.966974
 H         2.321017        -1.880870        -1.054662
 H         4.554854        -1.535500         2.191586
 H         4.923389         0.293185         2.674690
 H         2.037673        -1.800050         1.298264
