19
Iteration:  3799
 C        -0.121359        -0.163532        -0.082932
 C         1.365960         0.010403         0.081684
 C         2.367385         1.215756         0.149240
 C         3.243291        -0.177953         0.095986
 C         2.292960        -0.605485        -0.990746
 O         4.551108        -0.273357         0.669785
 C         4.282507        -0.176016         2.156166
 O         2.842020        -0.204055         2.397546
 C         2.324265        -0.776317         1.137013
 H        -0.713556         0.580745         0.546026
 H        -0.585982        -0.177920        -1.213495
 H        -0.390841        -1.204485         0.298039
 H         2.367530         1.680823        -0.827717
 H         2.412700         1.762740         1.075018
 H         2.520923        -0.360355        -2.016472
 H         2.231310        -1.782961        -1.038637
 H         4.674974        -1.004487         2.741741
 H         4.648232         0.716504         2.691330
 H         2.399189        -1.831606         1.323400
