19
Iteration:  2235
 C        -0.077051         0.091440         0.063695
 C         1.380081        -0.065518         0.036172
 C         2.332830         1.187939         0.007367
 C         3.180993        -0.062577         0.170577
 C         2.288708        -0.803191        -1.006849
 O         4.486132        -0.265241         0.673952
 C         4.270088        -0.059182         2.110758
 O         2.898382        -0.420268         2.388608
 C         2.338044        -0.829422         1.211144
 H        -0.414831         0.776026         0.832443
 H        -0.370331         0.464845        -0.957446
 H        -0.556477        -0.869998         0.250271
 H         2.586474         1.599082        -0.990364
 H         2.256236         1.938440         0.783201
 H         2.574522        -0.321459        -1.947975
 H         2.394049        -1.861205        -1.040020
 H         5.003030        -0.719620         2.706218
 H         4.541534         0.986827         2.367625
 H         2.179331        -1.891216         1.097484
