19
Iteration:  2456charge 0 multiplicity 1
 C        -0.082666        -0.066642         0.050080
 C         1.393856        -0.073178         0.019447
 C         2.416838         1.177163         0.088412
 C         3.275460        -0.180637         0.151013
 C         2.238448        -0.782280        -0.989360
 O         4.579392        -0.153451         0.643261
 C         4.260761        -0.192928         2.161547
 O         2.787274        -0.244030         2.410683
 C         2.260743        -0.741901         1.086448
 H        -0.316266         0.432740         0.980752
 H        -0.596090         0.601001        -0.723905
 H        -0.705367        -1.081627        -0.043839
 H         2.456736         1.820547        -0.744313
 H         2.566027         1.809649         0.975697
 H         2.270879        -0.283702        -1.931212
 H         2.319207        -1.850192        -1.052014
 H         4.905967        -1.040853         2.435312
 H         4.725436         0.757800         2.371676
 H         2.257525        -1.823727         1.271251
