19
Iteration:  4108
 C        -0.172858        -0.030048        -0.105728
 C         1.394144        -0.050276         0.038614
 C         2.387487         1.164412         0.219842
 C         3.156488        -0.161492         0.097695
 C         2.379492        -0.795921        -1.035658
 O         4.560946        -0.178736         0.644112
 C         4.270348        -0.100404         2.109973
 O         2.832429        -0.283514         2.418585
 C         2.314021        -0.778986         1.239377
 H        -0.461459         0.674224         0.607602
 H        -0.394136         0.351928        -1.071580
 H        -0.591505        -1.062826         0.077060
 H         2.537365         1.809068        -0.627437
 H         2.334159         1.503325         1.248594
 H         2.453779        -0.286500        -2.092547
 H         2.368583        -1.956784        -1.077087
 H         4.762591        -0.955991         2.610783
 H         4.598356         0.901651         2.389274
 H         2.261283        -1.891599         1.377188
