19
Iteration:  4281charge 0 multiplicity 1
 C        -0.194571        -0.094329        -0.099544
 C         1.365592        -0.008225         0.117226
 C         2.332963         1.137105        -0.023962
 C         3.212107        -0.094639         0.135719
 C         2.277230        -0.833417        -1.022197
 O         4.574671        -0.019458         0.779146
 C         4.299118        -0.460198         2.092833
 O         2.866775        -0.185856         2.439206
 C         2.371493        -0.649719         1.196641
 H        -0.661748         0.544149         0.596687
 H        -0.320700         0.277445        -1.242009
 H        -0.197670        -1.203799         0.223063
 H         2.221603         1.618439        -1.078526
 H         2.251136         2.022872         0.726640
 H         2.327394        -0.229950        -1.870951
 H         2.477693        -1.962820        -0.960530
 H         4.587363        -1.484448         2.310722
 H         4.904118         0.162065         2.841489
 H         2.293607        -1.748446         1.419211
