19
Iteration:  4059charge 0 multiplicity 1
 C        -0.176499        -0.140151         0.082744
 C         1.404534        -0.034106         0.005672
 C         2.337998         1.208282         0.030721
 C         3.276584        -0.088226         0.137224
 C         2.359320        -0.761478        -1.017158
 O         4.573110        -0.183292         0.727229
 C         4.199363        -0.339126         2.205916
 O         2.798294        -0.110569         2.422079
 C         2.359015        -0.701741         1.008360
 H        -0.547020        -0.011115         1.137457
 H        -0.632708         0.443639        -0.729109
 H        -0.179263        -1.126782        -0.241953
 H         2.402634         1.690208        -0.964289
 H         2.284071         1.723074         0.999227
 H         2.380876        -0.439470        -1.979506
 H         2.268727        -1.791942        -1.037758
 H         4.423172        -1.410415         2.331402
 H         5.000912         0.346364         2.612276
 H         2.444682        -1.772712         1.257644
