19
Iteration:  2674
 C        -0.114372        -0.054008        -0.028514
 C         1.331259        -0.019781         0.120485
 C         2.316387         1.159315         0.095156
 C         3.209892        -0.199779         0.177185
 C         2.463962        -0.675405        -0.991814
 O         4.500642        -0.258371         0.663850
 C         4.311959        -0.159571         2.056604
 O         2.820836        -0.263649         2.387712
 C         2.320508        -0.751135         1.154183
 H        -0.556810         0.377120         0.810790
 H        -0.490672         0.641785        -0.774033
 H        -0.562514        -1.035493        -0.194546
 H         2.404826         1.656408        -0.858267
 H         2.310240         1.846432         0.944319
 H         2.652952        -0.270403        -1.979050
 H         2.342144        -1.827635        -1.034929
 H         4.816997        -0.960850         2.702999
 H         4.597127         0.846485         2.492439
 H         2.179568        -1.862445         1.280405
