19
Iteration:  3911charge 0 multiplicity 1
 C        -0.119221        -0.019743         0.073852
 C         1.426486        -0.077497         0.058286
 C         2.364409         1.113461         0.188099
 C         3.283489        -0.157264         0.112038
 C         2.444410        -0.651011        -1.024329
 O         4.531656        -0.374616         0.705506
 C         4.180662         0.073814         2.079410
 O         2.799944        -0.349392         2.380358
 C         2.246478        -0.794584         1.080778
 H        -0.433654         0.258214         1.070429
 H        -0.461069         0.612856        -0.869184
 H        -0.524597        -1.127204        -0.152511
 H         2.397586         1.638170        -0.751060
 H         2.346733         1.825211         1.010302
 H         2.367330        -0.134421        -2.031293
 H         2.297101        -1.787748        -0.933423
 H         5.024540        -0.160157         2.668259
 H         4.429059         1.109571         1.964739
 H         2.243657        -1.851572         1.049945
