19
Iteration:  2780
 C        -0.144701         0.059633         0.033085
 C         1.413250        -0.093082         0.094692
 C         2.356749         1.073373         0.154412
 C         3.274219        -0.192874         0.138140
 C         2.392082        -0.776610        -1.010049
 O         4.582438        -0.156826         0.720409
 C         4.192438        -0.097433         2.105578
 O         2.827738        -0.333392         2.353721
 C         2.282921        -0.776672         1.039046
 H        -0.582064         0.577696         0.944791
 H        -0.471980         0.603803        -0.955436
 H        -0.686195        -0.923646        -0.023317
 H         2.261080         1.560727        -0.872470
 H         2.441360         1.760756         1.070624
 H         2.406548        -0.082056        -1.823877
 H         2.182210        -1.847213        -1.210905
 H         4.931682        -0.673835         2.621888
 H         4.401427         0.990136         2.385055
 H         2.267412        -1.828792         1.233752
