19
Iteration:  2158
 C        -0.151147        -0.036174         0.061234
 C         1.362610        -0.044752         0.056291
 C         2.331238         1.213989         0.111160
 C         3.226580        -0.207361         0.119658
 C         2.335690        -0.699917        -1.071764
 O         4.629026        -0.445102         0.692595
 C         4.264119        -0.032461         2.090198
 O         2.891364        -0.263777         2.405878
 C         2.228707        -0.737207         1.199987
 H        -0.346813         0.384829         1.020264
 H        -0.523453         0.660185        -0.701309
 H        -0.627348        -0.942686        -0.193802
 H         2.554801         1.785274        -0.829782
 H         2.191007         1.867391         0.961968
 H         2.176470        -0.057309        -1.933701
 H         2.288251        -1.736783        -1.392884
 H         4.881776        -0.718049         2.801939
 H         4.409338         1.046068         2.036417
 H         2.413732        -1.776062         1.073277
