19
Iteration:  2902
 C        -0.064282         0.047507         0.009554
 C         1.424695        -0.104344         0.071242
 C         2.329536         1.101221         0.175712
 C         3.206754        -0.088124         0.150274
 C         2.396568        -0.758214        -0.978615
 O         4.526782        -0.158504         0.657162
 C         4.233441        -0.154059         2.122051
 O         2.786996        -0.304349         2.298757
 C         2.349045        -0.841374         1.117591
 H        -0.469355         0.795318         0.686892
 H        -0.508229         0.306608        -1.014131
 H        -0.737747        -0.806885         0.265470
 H         2.403255         1.695269        -0.777909
 H         2.260606         1.697417         1.127511
 H         2.295702        -0.277223        -1.883359
 H         2.533306        -1.854501        -0.972621
 H         4.797119        -0.883593         2.655407
 H         4.507269         0.851216         2.468945
 H         2.303273        -1.895242         1.344938
