19
Iteration:  1898charge 0 multiplicity 1
 C        -0.150984         0.101397         0.101088
 C         1.355391        -0.120557         0.078285
 C         2.386525         1.161728         0.126999
 C         3.206002        -0.165191         0.152793
 C         2.447303        -0.731509        -1.034564
 O         4.481945        -0.300343         0.658157
 C         4.277893        -0.058199         2.012449
 O         2.865968        -0.329623         2.360991
 C         2.233103        -0.835011         1.194491
 H        -0.250550         0.908909         0.809693
 H        -0.492693         0.423865        -0.912417
 H        -0.636494        -0.854368         0.356043
 H         2.533221         1.705997        -0.796515
 H         2.545149         1.869843         0.857183
 H         2.550520        -0.210937        -1.974243
 H         2.452174        -1.823505        -1.219110
 H         4.960318        -0.654427         2.771145
 H         4.413007         1.046343         2.183685
 H         2.204886        -1.918633         1.254207
