19
Iteration:  1626charge 0 multiplicity 1
 C        -0.169863         0.068016         0.019358
 C         1.345493        -0.043471         0.048041
 C         2.293144         1.127744         0.110529
 C         3.225062        -0.146363         0.130701
 C         2.350193        -0.725427        -0.955601
 O         4.660172        -0.315914         0.603023
 C         4.315580        -0.103247         2.143755
 O         2.823551        -0.285311         2.402831
 C         2.293190        -0.772216         1.148141
 H        -0.537864         0.511508         0.957186
 H        -0.454919         0.518239        -0.960728
 H        -0.598061        -0.975463         0.082435
 H         2.258332         1.658592        -0.953160
 H         2.448525         1.769435         0.963457
 H         2.260142        -0.348698        -2.003686
 H         2.281348        -1.844386        -1.052092
 H         4.773542        -0.958519         2.661602
 H         4.600441         0.861824         2.411875
 H         2.312884        -1.779782         1.274312
