19
Iteration:   463
 C        -0.098215        -0.046932         0.062339
 C         1.381405        -0.096532         0.092551
 C         2.418209         1.180267         0.168847
 C         3.208158        -0.111666         0.115055
 C         2.291953        -0.746767        -0.969463
 O         4.483685        -0.267458         0.637072
 C         4.229444        -0.123293         2.092107
 O         2.875858        -0.243056         2.324770
 C         2.320932        -0.785069         1.097308
 H        -0.425761         0.641580         0.786440
 H        -0.531042         0.408853        -0.923580
 H        -0.496837        -0.974868         0.503773
 H         2.519489         1.867575        -0.729956
 H         2.470373         1.698409         1.097255
 H         2.440759        -0.245941        -1.926780
 H         2.468315        -1.843802        -0.974030
 H         4.778316        -0.974937         2.617892
 H         4.586510         0.930015         2.319563
 H         2.324666        -1.925063         1.144561
