19
Iteration:  4707
 C        -0.109552         0.020692         0.060314
 C         1.359157        -0.057454         0.088989
 C         2.461568         1.125559         0.053549
 C         3.237208        -0.204579         0.129469
 C         2.286450        -0.731106        -1.084039
 O         4.590248        -0.173118         0.707444
 C         4.190935        -0.016404         2.184897
 O         2.831384        -0.418563         2.366560
 C         2.297368        -0.802610         1.159798
 H        -0.536635         0.770182         0.678050
 H        -0.432098         0.068250        -1.043808
 H        -0.571768        -1.004609         0.118591
 H         2.540709         1.727813        -0.784555
 H         2.332909         1.806389         0.918905
 H         2.530327        -0.114561        -1.863161
 H         2.018689        -1.761288        -1.196525
 H         4.983973        -0.522683         2.758630
 H         4.327651         1.089166         2.341748
 H         2.298060        -1.952119         0.990536
