19
Iteration:  1490
 C        -0.109346        -0.041626        -0.051442
 C         1.361054        -0.006219         0.127128
 C         2.271457         1.163858         0.068620
 C         3.217214        -0.194266         0.166403
 C         2.287428        -0.697065        -0.959325
 O         4.600718        -0.256923         0.541746
 C         4.329807        -0.239943         2.190065
 O         2.888567        -0.225030         2.424082
 C         2.316996        -0.710920         1.173465
 H        -0.681766         0.437826         0.856602
 H        -0.360172         0.613401        -0.948529
 H        -0.663493        -1.025941        -0.045237
 H         2.379225         1.745327        -0.812805
 H         2.220495         1.756761         1.005731
 H         2.529544        -0.280505        -1.954097
 H         2.030190        -1.807610        -1.097688
 H         4.626447        -1.234293         2.473661
 H         4.776011         0.646317         2.562987
 H         2.139696        -1.768200         1.141914
