19
Iteration:  1051
 C        -0.170971        -0.102071         0.144077
 C         1.313050        -0.062602         0.064608
 C         2.336217         1.208568         0.065431
 C         3.250738        -0.107835         0.123713
 C         2.274284        -0.675342        -1.023058
 O         4.635141        -0.145694         0.683780
 C         4.276816        -0.411563         2.108926
 O         2.900884        -0.188419         2.350389
 C         2.332190        -0.721217         1.118232
 H        -0.612791         0.327930         1.021034
 H        -0.587038         0.529657        -0.669138
 H        -0.435126        -1.204249        -0.069677
 H         2.335043         1.755280        -0.866067
 H         2.303571         1.936447         0.942222
 H         2.271906        -0.125408        -1.882208
 H         2.284739        -1.682771        -1.253195
 H         4.416038        -1.506431         2.364420
 H         4.951832         0.275260         2.623383
 H         2.068292        -1.831023         1.233292
