19
Iteration:  3847
 C        -0.095776         0.063637         0.035327
 C         1.386483        -0.077500         0.055186
 C         2.300669         1.130822         0.123255
 C         3.248374        -0.089744         0.144645
 C         2.390933        -0.807233        -1.015049
 O         4.552800        -0.197817         0.686621
 C         4.273760        -0.051362         2.089880
 O         2.791718        -0.317581         2.399999
 C         2.348569        -0.892791         1.139225
 H        -0.593337         0.513790         0.875206
 H        -0.279067         0.718639        -0.843439
 H        -0.599006        -0.902843        -0.344339
 H         2.429137         1.540995        -0.869928
 H         2.128202         1.770903         0.998706
 H         2.215744        -0.426026        -2.052331
 H         2.280110        -1.833349        -1.206991
 H         4.872623        -0.768085         2.758681
 H         4.312290         1.030636         2.493859
 H         2.401570        -2.054659         1.153140
