19
Iteration:  3197charge 0 multiplicity 1
 C        -0.161828         0.017237        -0.030146
 C         1.343951        -0.120934         0.035754
 C         2.359423         1.116298         0.191928
 C         3.274361        -0.194619         0.152802
 C         2.382915        -0.747366        -1.042102
 O         4.514278        -0.214040         0.737309
 C         4.247576         0.018017         2.079454
 O         2.871547        -0.347627         2.385021
 C         2.367781        -0.761563         1.115879
 H        -0.519834         0.512200         0.836776
 H        -0.491192         0.731794        -0.775566
 H        -0.783131        -0.893511        -0.092756
 H         2.509163         1.596787        -0.839705
 H         2.334181         1.530887         1.251316
 H         2.183585        -0.326173        -2.126656
 H         2.250502        -1.857834        -1.238899
 H         4.950821        -0.703120         2.575441
 H         4.429959         1.025263         2.466492
 H         2.111265        -1.902442         1.160267
