19
Iteration:  2622charge 0 multiplicity 1
 C        -0.054925         0.050219         0.046404
 C         1.396363        -0.111887         0.094349
 C         2.442434         1.161500         0.094643
 C         3.249533        -0.136193         0.162075
 C         2.327342        -0.824221        -0.977566
 O         4.518656        -0.121953         0.677404
 C         4.248071        -0.159062         2.077520
 O         2.797684        -0.269397         2.325141
 C         2.258197        -0.841508         1.117117
 H        -0.566611         0.387889         0.984863
 H        -0.529613         0.597345        -0.741211
 H        -0.482008        -1.009300        -0.115222
 H         2.439332         1.815621        -0.733209
 H         2.391027         1.672127         1.025302
 H         2.365558        -0.228385        -1.867204
 H         2.393169        -1.875282        -1.162416
 H         4.817567        -0.888414         2.626943
 H         4.353527         0.737524         2.579854
 H         2.266734        -1.955894         1.198061
