19
Iteration:   260
 C        -0.122607         0.006547         0.111957
 C         1.364748        -0.132733         0.109256
 C         2.324132         1.098106         0.007852
 C         3.274912        -0.023066         0.113475
 C         2.414477        -0.798267        -0.943421
 O         4.569493        -0.083993         0.671642
 C         4.243832        -0.369162         2.065771
 O         2.816944        -0.258658         2.376577
 C         2.281818        -0.659366         1.109344
 H        -0.380477         0.829424         0.895189
 H        -0.449041         0.369405        -0.855342
 H        -0.688949        -0.900915         0.273314
 H         2.168684         1.663642        -0.845244
 H         2.259100         1.660112         0.882991
 H         2.332486        -0.304107        -1.846678
 H         2.405694        -1.852347        -0.957201
 H         4.633511        -1.459641         2.245566
 H         4.741236         0.396331         2.668174
 H         2.335002        -1.721631         1.090301
