19
Iteration:  4287
 C        -0.222758        -0.111018        -0.129511
 C         1.349217        -0.058576         0.133321
 C         2.353675         1.194225        -0.055457
 C         3.221841        -0.107356         0.123742
 C         2.296791        -0.832545        -1.009450
 O         4.610689        -0.000619         0.803459
 C         4.304161        -0.457501         2.137635
 O         2.914665        -0.188358         2.455640
 C         2.320422        -0.636574         1.201970
 H        -0.750776         0.642826         0.553793
 H        -0.540902         0.020138        -1.100202
 H        -0.631918        -1.094174         0.139927
 H         2.219854         1.698019        -0.966524
 H         2.397900         1.934294         0.710951
 H         2.199425        -0.336560        -2.060215
 H         2.428199        -1.878932        -1.220836
 H         4.582202        -1.570389         2.186673
 H         4.979980         0.104189         2.733109
 H         2.150504        -1.712642         1.276395
