19
Iteration:  4282
 C        -0.203100        -0.094837        -0.105506
 C         1.365026        -0.015408         0.122390
 C         2.338246         1.145530        -0.027015
 C         3.210239        -0.097353         0.134615
 C         2.277928        -0.836794        -1.023521
 O         4.582599        -0.015802         0.784901
 C         4.297944        -0.461001         2.097671
 O         2.873347        -0.186902         2.442895
 C         2.366499        -0.643088         1.195858
 H        -0.671792         0.566213         0.595277
 H        -0.356751         0.253654        -1.258360
 H        -0.253729        -1.232162         0.234039
 H         2.207362         1.641801        -1.062100
 H         2.269075         2.013037         0.703156
 H         2.304212        -0.231153        -1.912091
 H         2.485686        -1.953953        -1.003126
 H         4.604729        -1.508486         2.297737
 H         4.929009         0.156745         2.829663
 H         2.267676        -1.757209         1.418211
