19
Iteration:  4175
 C        -0.146214         0.055443         0.012830
 C         1.351840        -0.024508         0.002975
 C         2.406057         1.124725         0.167612
 C         3.227201        -0.204684         0.205073
 C         2.411083        -0.761315        -1.009186
 O         4.554003        -0.270049         0.704544
 C         4.165202         0.127658         2.071986
 O         2.926030        -0.458295         2.333514
 C         2.256881        -0.785468         1.147260
 H        -0.483689         0.553167         0.894697
 H        -0.531767         0.424213        -0.881476
 H        -0.477453        -1.025710        -0.004859
 H         2.713880         1.696727        -0.697074
 H         2.309692         1.632570         1.120286
 H         2.444347        -0.502200        -2.117967
 H         2.415975        -1.875294        -1.151506
 H         4.767230        -0.349714         2.876461
 H         4.051703         1.208810         2.176732
 H         1.963631        -1.843167         1.207326
