19
Iteration:  1024
 C        -0.105678        -0.180886         0.073743
 C         1.345902        -0.004548         0.112703
 C         2.339119         1.267089         0.250972
 C         3.220198        -0.068755         0.119797
 C         2.429457        -0.688015        -0.950373
 O         4.462569        -0.303328         0.555165
 C         4.267363        -0.405681         2.051364
 O         2.866191        -0.081774         2.330565
 C         2.334566        -0.682543         1.139851
 H        -0.683415        -0.009416         1.039466
 H        -0.552945         0.397098        -0.749805
 H        -0.226110        -1.196654        -0.090613
 H         2.210692         1.983871        -0.607806
 H         2.377678         1.841913         1.128813
 H         2.465116        -0.167683        -2.035646
 H         2.390606        -1.873023        -1.075049
 H         4.483008        -1.410345         2.392415
 H         5.105456         0.269102         2.318191
 H         2.111465        -1.846366         1.143242
