19
Iteration:  1693charge 0 multiplicity 1
 C        -0.162743        -0.029837        -0.008779
 C         1.351590        -0.050525         0.102427
 C         2.414725         1.152927         0.059726
 C         3.215763        -0.129848         0.137306
 C         2.288995        -0.786771        -0.963297
 O         4.532232        -0.100159         0.706784
 C         4.346953        -0.451108         2.080002
 O         2.860309        -0.101972         2.362470
 C         2.317589        -0.681279         1.179772
 H        -0.603345         0.350348         0.892796
 H        -0.620456         0.322219        -0.963099
 H        -0.507917        -1.141092        -0.039857
 H         2.368485         1.803009        -0.914478
 H         2.537226         1.857308         0.906713
 H         2.294326        -0.503986        -2.027867
 H         2.293728        -1.937687        -0.958419
 H         4.433474        -1.540296         2.218013
 H         4.946619         0.152055         2.776704
 H         2.218801        -1.738411         1.172668
