19
Iteration:   489
 C        -0.158884        -0.053467        -0.014586
 C         1.336177        -0.047552         0.151811
 C         2.258041         1.197989         0.003441
 C         3.256116        -0.141543         0.121616
 C         2.257739        -0.794334        -0.929485
 O         4.609072        -0.156520         0.653111
 C         4.353305        -0.316554         2.113842
 O         2.880289        -0.239586         2.396413
 C         2.342841        -0.661134         1.146995
 H        -0.700709         0.596796         0.750625
 H        -0.406756         0.342966        -0.936027
 H        -0.565459        -1.036158         0.075727
 H         2.193775         1.756953        -0.936476
 H         2.331544         1.892097         0.929475
 H         2.549559        -0.122269        -1.722007
 H         2.197855        -1.927701        -1.148365
 H         4.607479        -1.300104         2.401558
 H         4.923443         0.390801         2.689435
 H         2.213069        -1.795614         1.195240
