19
Iteration:  2677charge 0 multiplicity 1
 C        -0.102451        -0.049485        -0.050798
 C         1.378220        -0.006226         0.128277
 C         2.290971         1.183966         0.129261
 C         3.214226        -0.192287         0.174361
 C         2.430475        -0.712223        -1.016164
 O         4.525646        -0.252085         0.659532
 C         4.294608        -0.189255         2.074023
 O         2.830928        -0.242287         2.388495
 C         2.283936        -0.762296         1.153998
 H        -0.555660         0.412860         0.881822
 H        -0.547381         0.599563        -0.760376
 H        -0.488260        -1.105027        -0.146354
 H         2.399164         1.597058        -0.828461
 H         2.293684         1.824152         0.956524
 H         2.686004        -0.272713        -1.994567
 H         2.441517        -1.792251        -1.056117
 H         4.920481        -0.897835         2.674966
 H         4.477162         0.814551         2.314837
 H         2.101217        -1.880805         1.288726
