19
Iteration:  4483charge 0 multiplicity 1
 C        -0.136410        -0.034494        -0.041250
 C         1.384950        -0.019137         0.047599
 C         2.338892         1.196549         0.149074
 C         3.224147        -0.113084         0.160896
 C         2.406064        -0.806302        -1.016503
 O         4.547589        -0.266440         0.654663
 C         4.180936        -0.076927         2.137267
 O         2.896178        -0.319947         2.416315
 C         2.324166        -0.759135         1.154401
 H        -0.726601         0.764031         0.664950
 H        -0.372440         0.301068        -1.096085
 H        -0.745597        -1.013655         0.138551
 H         2.436258         1.672402        -0.795044
 H         2.252537         1.648145         1.169754
 H         2.420993        -0.370326        -2.055050
 H         2.179816        -1.830163        -0.960261
 H         4.912497        -0.832690         2.559576
 H         4.531440         0.948194         2.410556
 H         2.256222        -1.900466         0.947295
