19
Iteration:    46charge 0 multiplicity 1
 C        -0.211101        -0.201652        -0.017148
 C         1.319756        -0.019960         0.180993
 C         2.321506         1.235466         0.121298
 C         3.290855        -0.031311         0.126906
 C         2.390152        -0.743603        -0.913527
 O         4.563839        -0.192987         0.670949
 C         4.244075        -0.488722         2.074919
 O         2.942833        -0.067557         2.305720
 C         2.307617        -0.631736         1.135022
 H        -0.755864         0.172983         0.770979
 H        -0.475245         0.398767        -0.975349
 H        -0.513970        -1.275227        -0.088395
 H         2.309886         1.873882        -0.750645
 H         2.296303         1.996659         0.964503
 H         2.275527        -0.543893        -2.036445
 H         2.254667        -1.810296        -0.826348
 H         4.355151        -1.585856         2.014801
 H         4.968957        -0.118864         2.774502
 H         2.144801        -1.688570         1.239739
