19
Iteration:  1156
 C        -0.150021        -0.183778         0.013304
 C         1.373620         0.086508         0.234332
 C         2.446174         1.308564         0.235451
 C         3.267810        -0.192672         0.105645
 C         2.312241        -0.637760        -0.993804
 O         4.534582        -0.362071         0.603119
 C         4.237225        -0.189793         2.029305
 O         2.873736        -0.261409         2.338791
 C         2.290155        -0.741569         1.090610
 H        -0.851328         0.194524         0.876539
 H        -0.520663         0.226746        -0.941460
 H        -0.280061        -1.309997        -0.085592
 H         2.555577         1.916077        -0.643339
 H         2.418953         1.778266         1.239966
 H         2.148293         0.036727        -1.947496
 H         2.058469        -1.746739        -1.225557
 H         4.941951        -0.906557         2.530028
 H         4.482401         0.798987         2.493068
 H         2.105276        -1.751900         1.266900
