19
Iteration:   916charge 0 multiplicity 1
 C        -0.156120         0.059190         0.187197
 C         1.346330        -0.011889         0.183132
 C         2.357547         1.071015         0.085836
 C         3.246783        -0.222573         0.072103
 C         2.347840        -0.673540        -1.089756
 O         4.629067        -0.262123         0.708058
 C         4.240828         0.011698         2.078947
 O         2.873690        -0.388660         2.342866
 C         2.287223        -0.847906         1.071364
 H        -0.540872         0.718560         1.029944
 H        -0.501275         0.506517        -0.717927
 H        -0.674731        -0.945058         0.070060
 H         2.233175         1.856013        -0.724507
 H         2.255439         1.574442         1.017149
 H         2.416001         0.034729        -1.996334
 H         2.250635        -1.711288        -1.397951
 H         4.922954        -0.741736         2.549910
 H         4.276046         1.136682         2.329640
 H         2.194746        -2.002579         1.174304
