19
Iteration:  3986charge 0 multiplicity 1
 C        -0.141829        -0.012405        -0.077224
 C         1.381186        -0.040105         0.100495
 C         2.274428         1.146477         0.069545
 C         3.216328        -0.027622         0.167120
 C         2.337376        -0.822855        -0.959594
 O         4.560953        -0.110975         0.758466
 C         4.365721        -0.271259         2.108674
 O         2.815285        -0.275196         2.395556
 C         2.320350        -0.776321         1.100655
 H        -0.485388         0.727169         0.550088
 H        -0.380461         0.291805        -1.157525
 H        -0.601587        -0.997132         0.148057
 H         2.249757         1.644794        -0.903736
 H         2.088456         1.779064         0.954457
 H         2.378237        -0.511633        -2.039751
 H         2.519355        -2.008599        -0.983934
 H         4.941568        -1.170804         2.335768
 H         4.895619         0.600030         2.590579
 H         2.244282        -1.863641         1.146968
