19
Iteration:  2123charge 0 multiplicity 1
 C        -0.116114        -0.085253         0.058192
 C         1.457708         0.020693         0.107102
 C         2.485618         1.213612         0.104870
 C         3.249980        -0.151055         0.100379
 C         2.314862        -0.778051        -0.969820
 O         4.542069        -0.285932         0.588722
 C         4.183771        -0.143183         2.046225
 O         2.801790        -0.258450         2.389731
 C         2.240397        -0.744414         1.163359
 H        -0.542843         0.262786         1.061996
 H        -0.597688         0.597063        -0.597522
 H        -0.486840        -1.074833         0.048387
 H         2.717543         1.761038        -0.744210
 H         2.615452         1.708788         1.034443
 H         2.218471        -0.277117        -1.902525
 H         2.186630        -1.870850        -0.987962
 H         4.838724        -0.750091         2.801204
 H         4.456872         0.847090         2.342772
 H         2.210787        -1.827288         1.172066
