19
Iteration:  2372charge 0 multiplicity 1
 C        -0.172737         0.014112        -0.031378
 C         1.366344        -0.115920         0.161212
 C         2.401956         1.076582         0.044025
 C         3.262255        -0.128209         0.142840
 C         2.283027        -0.747952        -0.947746
 O         4.528504        -0.148571         0.658917
 C         4.253273        -0.217225         2.095854
 O         2.891453        -0.257682         2.328806
 C         2.348542        -0.709508         1.194008
 H        -0.732625         0.670065         0.653752
 H        -0.299890         0.354761        -1.004514
 H        -0.641639        -0.922944         0.055876
 H         2.432253         1.736339        -0.905946
 H         2.405976         1.570694         1.064721
 H         2.194161        -0.240926        -1.907740
 H         2.342230        -1.889610        -1.016960
 H         4.653819        -1.079578         2.594225
 H         4.577019         0.691982         2.702183
 H         2.354454        -1.794602         1.267871
