19
Iteration:  3654charge 0 multiplicity 1
 C        -0.100615        -0.189464        -0.063289
 C         1.431499        -0.083738         0.133580
 C         2.363714         1.268485         0.120093
 C         3.249491        -0.078637         0.092409
 C         2.392863        -0.685217        -0.978537
 O         4.542570        -0.313311         0.652259
 C         4.269781        -0.180227         2.124738
 O         2.807645        -0.189327         2.412638
 C         2.237796        -0.767866         1.119879
 H        -0.545801         0.448122         0.819438
 H        -0.662038         0.305395        -0.999869
 H        -0.599769        -1.148060         0.083307
 H         2.357071         1.857500        -0.830221
 H         2.346460         1.812622         1.084479
 H         2.309318        -0.112704        -1.941924
 H         2.429181        -1.747076        -1.222690
 H         4.675089        -1.032286         2.666833
 H         4.730563         0.680298         2.537405
 H         2.138859        -1.765812         1.391767
