19
Iteration:   578
 C        -0.162979        -0.059811         0.074521
 C         1.376410        -0.051042         0.056978
 C         2.340680         1.123882         0.066177
 C         3.243925        -0.157805         0.118823
 C         2.328758        -0.714586        -1.038138
 O         4.560209        -0.207291         0.678032
 C         4.302872        -0.211522         2.123802
 O         2.902784        -0.243940         2.374682
 C         2.258778        -0.695331         1.162264
 H        -0.480017         0.495026         0.974682
 H        -0.572994         0.393681        -0.731426
 H        -0.437464        -1.086773         0.307009
 H         2.366277         1.648217        -0.900166
 H         2.317485         1.744515         1.016454
 H         2.374842        -0.021781        -1.984647
 H         2.273876        -1.836216        -1.201498
 H         4.725426        -1.139263         2.387704
 H         4.785068         0.667572         2.568129
 H         1.896173        -1.792532         1.160324
