19
Iteration:  3006
 C        -0.251663         0.016141        -0.089449
 C         1.329711        -0.087872         0.036676
 C         2.288336         1.090043         0.114960
 C         3.213900        -0.128661         0.179047
 C         2.442572        -0.774475        -0.988721
 O         4.513554        -0.145973         0.700754
 C         4.324296        -0.324168         2.135193
 O         2.877819        -0.155838         2.371023
 C         2.387190        -0.701601         1.160271
 H        -0.479692         0.346771         1.033633
 H        -0.739397         0.741754        -0.851402
 H        -0.460864        -1.104654        -0.179856
 H         2.363146         1.644372        -0.792464
 H         2.182275         1.648387         1.059075
 H         2.530752        -0.280870        -2.026810
 H         2.436197        -1.883230        -1.195446
 H         4.696805        -1.348292         2.399755
 H         4.724550         0.472542         2.784120
 H         2.584807        -1.815693         1.259416
