19
Iteration:  3536charge 0 multiplicity 1
 C        -0.057157        -0.082471         0.023111
 C         1.418256        -0.025829         0.133058
 C         2.411235         1.109422         0.119356
 C         3.243287        -0.212408         0.185308
 C         2.348048        -0.658134        -1.031327
 O         4.555073        -0.275630         0.701252
 C         4.126706         0.029069         2.052589
 O         2.819921        -0.325638         2.329914
 C         2.273488        -0.816139         1.151174
 H        -0.508966         0.079313         1.009247
 H        -0.468543         0.768702        -0.498799
 H        -0.525140        -1.012915        -0.440247
 H         2.671390         1.709950        -0.743354
 H         2.484795         1.734375         1.007261
 H         2.492151        -0.143997        -2.002230
 H         2.169469        -1.703742        -1.269802
 H         4.929888        -0.490879         2.652412
 H         4.304245         1.174686         2.116854
 H         2.197554        -1.968922         1.286918
