19
Iteration:  3429charge 0 multiplicity 1
 C        -0.168226        -0.012906         0.033539
 C         1.381611        -0.099523         0.039640
 C         2.267309         1.229963         0.072843
 C         3.233071        -0.140741         0.112619
 C         2.390348        -0.819414        -1.041057
 O         4.552591        -0.104553         0.747076
 C         4.281757        -0.253145         2.111083
 O         2.838552        -0.265502         2.397266
 C         2.338467        -0.760578         1.127813
 H        -0.359279         0.918893         0.491701
 H        -0.541007         0.129432        -0.984189
 H        -0.709075        -0.981218         0.451433
 H         2.434539         1.799085        -0.853426
 H         2.348487         1.737513         1.033051
 H         2.291255        -0.296729        -2.002990
 H         2.602611        -1.935437        -1.073638
 H         4.617398        -1.233789         2.548250
 H         4.817096         0.525901         2.615897
 H         2.459441        -1.805735         1.202331
