19
Iteration:  1280charge 0 multiplicity 1
 C        -0.222752         0.027054         0.126905
 C         1.424214        -0.069535         0.048304
 C         2.354560         1.239359         0.060756
 C         3.222033        -0.079206         0.101746
 C         2.322819        -0.644018        -1.003206
 O         4.580355        -0.358647         0.699984
 C         4.321505        -0.077803         2.078175
 O         2.857320        -0.445915         2.422802
 C         2.322769        -0.807168         1.080386
 H        -0.547416         0.643691         0.919859
 H        -0.600825         0.446377        -0.840424
 H        -0.724971        -0.993863         0.346853
 H         2.566023         1.730472        -0.900215
 H         2.294642         1.886368         0.894714
 H         2.416020        -0.035949        -1.916430
 H         1.950894        -1.746745        -1.167827
 H         4.981098        -0.626293         2.741931
 H         4.216228         1.002126         2.280688
 H         2.423173        -1.854171         0.975495
