19
Iteration:  4657
 C        -0.089636        -0.093401        -0.028723
 C         1.375009        -0.032446         0.077560
 C         2.292032         1.166507         0.185058
 C         3.225925        -0.195337         0.105528
 C         2.428037        -0.689474        -1.051774
 O         4.542157        -0.315380         0.663983
 C         4.281855        -0.133776         2.125030
 O         2.819171        -0.158834         2.425024
 C         2.280076        -0.803426         1.138883
 H        -0.568363         0.571879         0.769210
 H        -0.457170         0.292617        -0.972823
 H        -0.463973        -1.142255         0.087293
 H         2.379915         1.909310        -0.724101
 H         2.287645         1.859992         1.069444
 H         2.350343        -0.075397        -2.079685
 H         2.495338        -1.795578        -1.227401
 H         4.808338        -1.004404         2.559781
 H         4.778921         0.811836         2.400029
 H         2.001996        -1.810357         1.292036
