19
Iteration:   664charge 0 multiplicity 1
 C        -0.110394         0.133598         0.036723
 C         1.386618        -0.063513         0.109023
 C         2.345113         1.122246         0.129486
 C         3.180488        -0.189759         0.201573
 C         2.357282        -0.797658        -0.949547
 O         4.552972        -0.186746         0.605646
 C         4.263349         0.073044         2.031508
 O         2.928539        -0.481356         2.352614
 C         2.263027        -0.849035         1.129404
 H        -0.565479         0.541061         1.030693
 H        -0.363809         0.831026        -0.793962
 H        -0.728569        -0.744000        -0.174120
 H         2.640951         1.716896        -0.786618
 H         2.324633         1.628260         1.151634
 H         2.257156        -0.505973        -1.948260
 H         2.156382        -1.843371        -0.913658
 H         4.922215        -0.592525         2.591522
 H         4.187334         1.134814         2.339366
 H         2.159169        -1.976547         1.124755
