19
Iteration:  4020
 C        -0.116000        -0.055584         0.047224
 C         1.349277        -0.068891         0.091372
 C         2.350630         1.100844         0.041864
 C         3.281646        -0.112039         0.112636
 C         2.442380        -0.792955        -1.024112
 O         4.520669        -0.027001         0.721030
 C         4.266232        -0.378687         2.096610
 O         2.778078        -0.116359         2.418384
 C         2.325553        -0.777037         1.140081
 H        -0.658903         0.342324         0.879481
 H        -0.560470         0.566573        -0.781874
 H        -0.555518        -1.124202        -0.026079
 H         2.339064         1.579179        -0.943017
 H         2.362414         1.870417         0.826355
 H         2.565960        -0.160397        -1.998165
 H         2.445734        -1.981045        -1.091775
 H         4.256987        -1.498469         2.206985
 H         4.931967         0.243723         2.744339
 H         2.211025        -1.861662         1.104213
