19
Iteration:  1086
 C        -0.129120         0.104938         0.152568
 C         1.377118        -0.094377         0.087811
 C         2.385004         1.158336         0.030667
 C         3.253256        -0.075143         0.134021
 C         2.305488        -0.834458        -0.955622
 O         4.546767         0.096024         0.692259
 C         4.299786        -0.323342         2.010012
 O         2.806384        -0.431268         2.342098
 C         2.327670        -0.846663         1.109570
 H        -0.278045         0.758539         1.115358
 H        -0.435768         0.595490        -0.860840
 H        -0.820545        -0.769776         0.295665
 H         2.414843         1.655742        -1.002634
 H         2.268590         1.830587         0.890477
 H         2.197741        -0.351209        -1.887130
 H         2.369050        -1.899119        -0.973484
 H         4.635413        -1.346904         2.376122
 H         4.809748         0.404162         2.655365
 H         2.273090        -1.924336         1.224249
