19
Iteration:   440
 C        -0.162679         0.013376         0.153232
 C         1.391284        -0.013803         0.082181
 C         2.376218         1.061399         0.153792
 C         3.235971        -0.285867         0.121727
 C         2.417893        -0.657023        -1.131088
 O         4.603150        -0.302144         0.664639
 C         4.297674         0.041255         2.003052
 O         2.775397        -0.299232         2.401092
 C         2.249309        -0.835893         1.147884
 H        -0.603524         0.596898         0.944546
 H        -0.629384         0.549806        -0.781024
 H        -0.505135        -1.004674         0.537722
 H         2.545238         1.709069        -0.732530
 H         2.378993         1.618384         1.055711
 H         2.477490        -0.017274        -2.031506
 H         2.314274        -1.741898        -1.237742
 H         4.958854        -0.557674         2.753677
 H         4.245692         1.174114         2.042927
 H         2.009748        -1.939361         1.239111
