19
Iteration:  1823charge 0 multiplicity 1
 C        -0.098917         0.042886         0.010464
 C         1.352588        -0.014575        -0.021677
 C         2.341547         1.178261         0.103249
 C         3.184980        -0.208709         0.170833
 C         2.297358        -0.775612        -0.995629
 O         4.553853        -0.294454         0.602784
 C         4.274427        -0.078298         2.088222
 O         2.913486        -0.324697         2.446034
 C         2.301384        -0.771514         1.216048
 H        -0.320336         0.449687         0.969422
 H        -0.351051         0.932777        -0.611754
 H        -0.560366        -0.955260        -0.178767
 H         2.465555         1.739412        -0.836281
 H         2.213492         1.794144         0.981618
 H         2.559804        -0.235076        -1.896324
 H         2.297952        -1.896282        -1.039362
 H         4.883640        -0.773825         2.703432
 H         4.449161         0.914763         2.421952
 H         1.959818        -1.884625         1.060067
