19
Iteration:  2621
 C        -0.056998         0.049315         0.045916
 C         1.383437        -0.115622         0.099879
 C         2.453464         1.160817         0.098217
 C         3.247711        -0.133744         0.163167
 C         2.333393        -0.819959        -0.984664
 O         4.514953        -0.121430         0.673725
 C         4.242680        -0.163232         2.078815
 O         2.796591        -0.267181         2.327477
 C         2.264630        -0.839380         1.117425
 H        -0.521052         0.368706         0.977164
 H        -0.513531         0.588676        -0.755257
 H        -0.489557        -0.994047        -0.093056
 H         2.450126         1.803507        -0.719567
 H         2.377393         1.697556         1.009134
 H         2.349337        -0.226816        -1.873233
 H         2.422929        -1.899832        -1.150977
 H         4.825459        -0.894600         2.630812
 H         4.353773         0.744586         2.535663
 H         2.254429        -1.970200         1.206190
