19
Iteration:  1680
 C        -0.216331        -0.047176        -0.036657
 C         1.339211        -0.008593         0.072636
 C         2.387902         1.116729         0.062342
 C         3.283123        -0.173727         0.115159
 C         2.317852        -0.790365        -0.897536
 O         4.635974        -0.053596         0.618736
 C         4.164075        -0.371088         2.077328
 O         2.931080        -0.162158         2.403710
 C         2.291987        -0.737026         1.224274
 H        -0.700464         0.531684         0.796659
 H        -0.394587         0.665204        -0.889089
 H        -0.645388        -1.091263        -0.067497
 H         2.573277         1.690310        -0.920926
 H         2.430458         1.630623         0.971388
 H         2.269478        -0.183259        -1.839805
 H         2.123318        -1.909168        -0.933397
 H         4.384191        -1.438828         2.094089
 H         4.767865         0.179755         2.689303
 H         2.226085        -1.820588         1.543331
