19
Iteration:  3855
 C        -0.101880         0.076805         0.026026
 C         1.395303        -0.146283         0.079528
 C         2.331991         1.134051         0.084537
 C         3.237258        -0.158374         0.107050
 C         2.327201        -0.805774        -0.985268
 O         4.588711        -0.162097         0.740648
 C         4.297217        -0.030910         2.096041
 O         2.760177        -0.362853         2.359077
 C         2.343169        -0.845849         1.106076
 H        -0.595164         0.429495         0.941702
 H        -0.303608         0.994697        -0.738402
 H        -0.701995        -0.890570        -0.307646
 H         2.430096         1.794685        -0.773072
 H         2.211248         1.766594         0.959034
 H         2.252572        -0.177298        -1.861112
 H         2.443218        -1.965568        -0.975073
 H         4.887928        -0.704861         2.691231
 H         4.245779         1.036637         2.355798
 H         2.499934        -1.920599         1.158895
