19
Iteration:   343charge 0 multiplicity 1
 C        -0.114432        -0.064829        -0.042143
 C         1.362353        -0.105523         0.095197
 C         2.244203         1.193356         0.129308
 C         3.247613        -0.119593         0.152681
 C         2.311734        -0.723318        -0.904864
 O         4.564272        -0.219216         0.622864
 C         4.314472        -0.328040         2.075962
 O         2.899930        -0.150872         2.349779
 C         2.322917        -0.707702         1.179127
 H        -0.479489         0.437467         0.804751
 H        -0.347156         0.662650        -0.922999
 H        -0.741309        -1.003371        -0.102457
 H         2.419145         1.826799        -0.867282
 H         2.045150         1.756469         1.060265
 H         2.323197        -0.266578        -1.950121
 H         2.306589        -1.916097        -0.860732
 H         4.780055        -1.286854         2.418446
 H         4.773516         0.503811         2.626796
 H         2.144821        -1.864152         1.220967
