19
Iteration:  3893charge 0 multiplicity 1
 C        -0.088275         0.036792         0.070085
 C         1.395718        -0.072468         0.054952
 C         2.425310         1.176887         0.073358
 C         3.215950        -0.259012         0.176202
 C         2.374469        -0.743663        -1.034494
 O         4.538751        -0.226111         0.712848
 C         4.238600         0.091128         2.028904
 O         2.750972        -0.410318         2.387397
 C         2.312566        -0.847126         1.159018
 H        -0.369194         0.160967         1.174241
 H        -0.524409         0.775683        -0.487140
 H        -0.478649        -0.922989        -0.250227
 H         2.644433         1.775239        -0.850555
 H         2.308219         1.634969         1.068591
 H         2.536762        -0.266933        -2.019227
 H         2.458254        -1.729838        -1.335883
 H         4.980731        -0.456057         2.804902
 H         4.125141         1.237259         2.219468
 H         2.102610        -1.968703         0.951693
