19
Iteration:  2794charge 0 multiplicity 1
 C        -0.061269         0.032832        -0.003098
 C         1.383170        -0.095865         0.093446
 C         2.386160         1.096338         0.081415
 C         3.252580        -0.193284         0.136937
 C         2.301503        -0.674383        -1.101869
 O         4.546126        -0.211505         0.672631
 C         4.239989        -0.006196         2.120788
 O         2.792107        -0.292522         2.430466
 C         2.334311        -0.921789         1.214769
 H        -0.456848         0.428577         0.874286
 H        -0.365479         0.692372        -0.797759
 H        -0.468412        -1.003421        -0.146684
 H         2.440424         1.811929        -0.736584
 H         2.294919         1.634285         1.027231
 H         2.269788        -0.120035        -2.027282
 H         2.335589        -1.767778        -1.404534
 H         4.705954        -0.862074         2.611662
 H         4.488573         1.001483         2.508182
 H         2.220951        -1.950934         1.150922
