19
Iteration:   308
 C        -0.148596        -0.258049         0.066870
 C         1.377792        -0.022357         0.108750
 C         2.402951         1.259777         0.040644
 C         3.204695        -0.129445         0.116346
 C         2.321642        -0.708756        -1.020980
 O         4.536170        -0.136622         0.667583
 C         4.251896        -0.495218         2.075546
 O         2.900464        -0.101774         2.417213
 C         2.293619        -0.595922         1.174677
 H        -0.531242         0.646461         0.584098
 H        -0.425066        -0.057512        -0.987022
 H        -0.625299        -1.302871         0.289972
 H         2.649817         1.899750        -0.875054
 H         2.431311         1.903811         0.995738
 H         2.372031        -0.187554        -2.064469
 H         2.335093        -1.832425        -1.129393
 H         4.400113        -1.641448         2.072403
 H         4.900647         0.118733         2.781727
 H         1.974322        -1.663237         1.450007
