19
Iteration:  3775
 C        -0.074125        -0.136122        -0.019746
 C         1.396484        -0.051337         0.140892
 C         2.362155         1.195801         0.091772
 C         3.238913        -0.040683         0.155959
 C         2.341546        -0.699251        -1.014348
 O         4.560122        -0.239310         0.696593
 C         4.299173        -0.242557         2.095015
 O         2.778980        -0.223591         2.355199
 C         2.288262        -0.707097         1.128766
 H        -0.747334         0.602163         0.600973
 H        -0.463415        -0.116140        -1.125793
 H        -0.385444        -1.124362         0.289717
 H         2.404179         1.673616        -0.901876
 H         2.211005         1.761660         1.020338
 H         2.407025        -0.364719        -2.088564
 H         2.399770        -1.842722        -1.019563
 H         4.559256        -1.128522         2.623566
 H         4.715304         0.526504         2.742755
 H         2.161074        -1.742278         1.304227
