19
Iteration:  4227
 C        -0.155920        -0.058157         0.048804
 C         1.378266        -0.075432         0.056309
 C         2.323165         1.144393         0.072165
 C         3.282168        -0.227488         0.162818
 C         2.435052        -0.706143        -1.051505
 O         4.538069        -0.257162         0.733306
 C         4.260470        -0.123092         2.152469
 O         2.801477        -0.134994         2.326797
 C         2.324850        -0.815607         1.086344
 H        -0.354772         0.162365         1.083688
 H        -0.433928         0.903086        -0.605571
 H        -0.562502        -1.153273        -0.182416
 H         2.264614         1.723816        -0.905246
 H         2.238262         1.665333         1.080919
 H         2.466098        -0.092953        -1.913372
 H         2.149446        -1.833183        -1.177592
 H         4.623908        -1.040370         2.704918
 H         4.638862         0.896443         2.562813
 H         2.276306        -1.960775         1.272318
