19
Iteration:  3333
 C        -0.138606        -0.040755        -0.061814
 C         1.336483        -0.094703         0.088938
 C         2.298553         1.100772         0.081886
 C         3.170082        -0.118522         0.185220
 C         2.422920        -0.760459        -1.015632
 O         4.544704        -0.145628         0.676993
 C         4.283881        -0.260450         2.137482
 O         2.874452        -0.181576         2.416528
 C         2.326218        -0.728240         1.114727
 H        -0.549944         0.190058         0.897141
 H        -0.582503         0.766628        -0.622751
 H        -0.520102        -0.926753        -0.440738
 H         2.441208         1.648858        -0.861745
 H         2.268135         1.743374         0.966821
 H         2.350563        -0.278090        -1.958101
 H         2.560330        -1.856970        -0.975554
 H         4.738784        -1.237134         2.414930
 H         4.908457         0.552693         2.610677
 H         2.197468        -1.876651         1.318768
