19
Iteration:  1336
 C        -0.207206        -0.055117        -0.061913
 C         1.345195        -0.007800         0.146844
 C         2.420672         1.119003         0.192701
 C         3.246770        -0.223742         0.092459
 C         2.264520        -0.633085        -0.992694
 O         4.607489        -0.265704         0.540656
 C         4.325177        -0.178207         2.100568
 O         2.826839        -0.195030         2.420699
 C         2.319646        -0.787597         1.196377
 H        -0.635968         0.316937         0.840524
 H        -0.731932         0.538501        -0.883172
 H        -0.507467        -1.144571        -0.271494
 H         2.494073         1.910842        -0.626583
 H         2.495485         1.606979         1.156322
 H         2.269729         0.074953        -1.823496
 H         2.191920        -1.831117        -1.186214
 H         4.803777        -1.080848         2.559336
 H         4.756068         0.700049         2.658336
 H         2.254256        -1.864507         1.313445
