19
Iteration:  4685
 C        -0.120848        -0.063529         0.006754
 C         1.345261        -0.006555         0.051475
 C         2.362424         1.171126         0.117429
 C         3.260211        -0.113773         0.079800
 C         2.399264        -0.691402        -0.950832
 O         4.544669        -0.295884         0.742079
 C         4.238788        -0.072123         2.064007
 O         2.795498        -0.351892         2.396678
 C         2.325553        -0.762228         1.086044
 H        -0.342453         0.702317         0.693260
 H        -0.690468        -0.058179        -0.974939
 H        -0.519130        -1.060832         0.297081
 H         2.577429         1.728059        -0.744194
 H         2.419442         1.777471         1.043386
 H         2.283976        -0.214733        -1.854810
 H         2.370562        -1.760192        -0.876643
 H         4.939904        -0.702590         2.631312
 H         4.540140         0.982205         2.286089
 H         2.162696        -1.914882         1.038033
