19
Iteration:   750
 C        -0.122619        -0.188361         0.131005
 C         1.369174        -0.025142         0.048619
 C         2.338499         1.289991         0.060067
 C         3.267598        -0.012694         0.135436
 C         2.402579        -0.707032        -0.850097
 O         4.546798        -0.173436         0.623561
 C         4.197124        -0.520694         2.041537
 O         2.845316        -0.099276         2.313736
 C         2.305956        -0.722074         1.115669
 H        -0.473679         0.541683         0.965701
 H        -0.674252         0.036251        -0.866095
 H        -0.304786        -1.214668         0.341129
 H         2.376418         1.897689        -0.836829
 H         2.481464         1.895794         0.967330
 H         2.251602        -0.424669        -1.857587
 H         2.275052        -1.819126        -0.722291
 H         4.552457        -1.604041         2.148068
 H         4.819555         0.112426         2.731647
 H         2.237402        -1.755114         1.153745
