19
Iteration:  3156charge 0 multiplicity 1
 C        -0.170133         0.007454        -0.029778
 C         1.439688        -0.082945         0.098733
 C         2.352853         1.109290         0.075991
 C         3.279608        -0.136180         0.098106
 C         2.367044        -0.749411        -0.954655
 O         4.485965        -0.153132         0.700948
 C         4.276133        -0.138178         2.067010
 O         2.857846        -0.318682         2.420601
 C         2.263528        -0.790320         1.146476
 H        -0.576197         0.184432         0.968179
 H        -0.228705         0.760582        -0.799405
 H        -0.488537        -0.990976        -0.486794
 H         2.418262         1.662800        -0.944047
 H         2.114678         1.709234         1.049789
 H         2.311647        -0.101856        -1.917972
 H         2.416191        -1.816571        -1.067384
 H         4.901732        -0.872193         2.705024
 H         4.527521         0.905764         2.402103
 H         2.310665        -1.874309         1.339730
