19
Iteration:  3593charge 0 multiplicity 1
 C        -0.107385         0.074891        -0.023511
 C         1.347523        -0.062071         0.118964
 C         2.264802         1.116455         0.074677
 C         3.304120        -0.134007         0.165286
 C         2.420391        -0.770136        -1.006456
 O         4.525351        -0.185207         0.654617
 C         4.282024        -0.014705         2.129016
 O         2.788130        -0.378438         2.411779
 C         2.312951        -0.897305         1.124344
 H        -0.260064         0.928860         0.654165
 H        -0.419217         0.356772        -1.043610
 H        -0.511950        -0.981209         0.388671
 H         2.407041         1.736264        -0.833578
 H         2.269903         1.709762         1.017088
 H         2.365395        -0.212675        -1.909712
 H         2.473071        -1.924214        -1.101616
 H         5.007433        -0.772188         2.609366
 H         4.431400         1.089898         2.531035
 H         2.238534        -2.019819         0.854385
