19
Iteration:   775
 C        -0.165275        -0.058856         0.153631
 C         1.334470        -0.026764         0.073899
 C         2.267300         1.179421        -0.066440
 C         3.230897        -0.067394         0.081072
 C         2.354307        -0.748797        -1.050730
 O         4.542841        -0.067685         0.740982
 C         4.298651        -0.529102         2.080628
 O         2.908717        -0.229710         2.475202
 C         2.360627        -0.654794         1.143722
 H        -0.631512         0.749601         0.812564
 H        -0.442757         0.085157        -0.884539
 H        -0.515872        -1.178558         0.306944
 H         2.285573         1.676424        -1.166036
 H         2.351523         1.979323         0.691972
 H         2.337674        -0.192327        -2.003351
 H         2.269963        -1.764477        -1.151616
 H         4.839759        -1.536527         2.184948
 H         4.793591         0.220410         2.801850
 H         2.231224        -1.739349         1.180291
