19
Iteration:  2924
 C        -0.104152         0.005168         0.046374
 C         1.385164        -0.058451         0.080932
 C         2.240214         1.161376         0.031360
 C         3.243553        -0.206013         0.130489
 C         2.428216        -0.682119        -1.042015
 O         4.540786        -0.208025         0.722506
 C         4.258631        -0.167208         2.131903
 O         2.837912        -0.260698         2.400076
 C         2.351378        -0.816984         1.110911
 H        -0.627899         0.617299         0.728432
 H        -0.446110         0.225836        -1.010216
 H        -0.710513        -0.925094         0.173579
 H         2.169075         1.886214        -0.811036
 H         2.298690         1.682006         1.026099
 H         2.535690        -0.178191        -1.924933
 H         2.375350        -1.784420        -1.105051
 H         4.825605        -1.017137         2.449214
 H         4.608676         0.718921         2.683703
 H         2.193048        -1.898946         1.165195
