19
Iteration:  2160
 C        -0.132116        -0.022110         0.063801
 C         1.343875        -0.066458         0.049751
 C         2.342630         1.206762         0.126673
 C         3.216026        -0.202237         0.129686
 C         2.329625        -0.706130        -1.083670
 O         4.640279        -0.448132         0.668453
 C         4.261736        -0.028473         2.096077
 O         2.878658        -0.265543         2.423253
 C         2.231203        -0.728089         1.197979
 H        -0.338581         0.369974         0.994671
 H        -0.445026         0.680103        -0.744923
 H        -0.637321        -0.966124        -0.178109
 H         2.572188         1.811728        -0.868723
 H         2.142159         1.881240         1.019462
 H         2.160112        -0.031044        -1.962580
 H         2.325950        -1.759220        -1.359165
 H         4.849337        -0.658803         2.742730
 H         4.434946         1.096134         2.060546
 H         2.434466        -1.801026         1.084626
