19
Iteration:     9
 C        -0.126476        -0.063639         0.037655
 C         1.429799        -0.110319         0.045292
 C         2.348630         1.140951         0.113286
 C         3.216656        -0.151467         0.134482
 C         2.353000        -0.653704        -0.996633
 O         4.500890        -0.237611         0.638299
 C         4.264514        -0.199777         2.089747
 O         2.914864        -0.221729         2.392632
 C         2.265297        -0.740444         1.145468
 H        -0.461828         0.627835         0.975478
 H        -0.538166         0.395185        -0.725574
 H        -0.564110        -1.023801        -0.054839
 H         2.473740         1.782557        -0.821951
 H         2.203421         1.802080         0.957591
 H         2.374942        -0.130215        -1.914903
 H         2.141738        -1.742311        -1.106972
 H         4.676580        -1.089227         2.457458
 H         4.800959         0.560329         2.686401
 H         2.140809        -1.836066         1.431630
