19
Iteration:  3613
 C        -0.165552        -0.044602        -0.019149
 C         1.370532        -0.109200         0.054952
 C         2.428236         1.180401         0.151840
 C         3.233084        -0.181743         0.171484
 C         2.343340        -0.701228        -1.045198
 O         4.559544        -0.187061         0.683681
 C         4.225353        -0.077275         2.102757
 O         2.835586        -0.337514         2.388213
 C         2.315547        -0.773581         1.165840
 H        -0.537944         0.894063         0.314183
 H        -0.531870         0.111726        -1.006562
 H        -0.603427        -1.006768         0.258425
 H         2.307405         1.651986        -0.809233
 H         2.445021         1.701832         1.115746
 H         2.434645        -0.153132        -1.953264
 H         2.436622        -1.834429        -1.131535
 H         5.027356        -0.798089         2.496866
 H         4.535533         0.927754         2.578749
 H         2.072604        -1.961153         1.213082
