19
Iteration:  1767
 C         0.010983         0.035349         0.027593
 C         1.384364        -0.018584         0.076892
 C         2.382944         1.069379         0.140401
 C         3.284045        -0.175423         0.092466
 C         2.238530        -0.741569        -0.968961
 O         4.538897        -0.157807         0.625616
 C         4.225937        -0.247575         2.143977
 O         2.823751        -0.170050         2.354876
 C         2.300261        -0.814029         1.152411
 H        -0.260992         0.549044         0.962571
 H        -0.358296         0.380800        -0.967791
 H        -0.451471        -0.908520         0.398478
 H         2.208870         1.576868        -0.844663
 H         2.328637         1.710678         0.963592
 H         2.286065        -0.257976        -1.954638
 H         2.110986        -1.839020        -1.218671
 H         4.665812        -1.229675         2.466332
 H         4.608368         0.651343         2.499224
 H         2.051690        -2.015200         1.242758
