19
Iteration:  1599charge 0 multiplicity 1
 C        -0.099609        -0.036042         0.145612
 C         1.418654        -0.002825         0.066863
 C         2.519712         1.153314         0.142099
 C         3.232665        -0.251275         0.151472
 C         2.294989        -0.697114        -1.021547
 O         4.438025        -0.349190         0.657014
 C         4.223846         0.043183         2.119684
 O         2.857126        -0.320997         2.327318
 C         2.264645        -0.762204         1.049127
 H        -0.517413         0.559137         1.016151
 H        -0.377272         0.244193        -0.882087
 H        -0.495714        -1.052713         0.097745
 H         2.685254         1.693589        -0.719437
 H         2.620908         1.795024         1.056575
 H         2.352533        -0.176584        -1.967997
 H         2.098437        -1.732947        -1.264466
 H         4.941922        -0.488733         2.766905
 H         4.524283         1.152396         2.310844
 H         2.096437        -1.986459         1.208658
