19
Iteration:  4869charge 0 multiplicity 1
 C        -0.151931         0.035334        -0.007235
 C         1.372608        -0.095760         0.132073
 C         2.356624         1.078871         0.074089
 C         3.249431        -0.116701         0.151562
 C         2.375116        -0.815094        -1.036111
 O         4.535573        -0.023944         0.750181
 C         4.264107        -0.310921         2.098603
 O         2.832325        -0.204260         2.321535
 C         2.312171        -0.813571         1.111529
 H        -0.398838         0.871174         0.506534
 H        -0.594786         0.077248        -1.029183
 H        -0.528816        -0.850375         0.405293
 H         2.302340         1.843857        -0.700818
 H         2.494805         1.666022         1.059296
 H         2.386314        -0.159634        -1.887629
 H         2.288613        -1.988311        -1.067808
 H         4.571713        -1.262216         2.585081
 H         4.685552         0.422750         2.637927
 H         2.482602        -1.851507         1.261921
