19
Iteration:  2361charge 0 multiplicity 1
 C        -0.120486         0.022292        -0.037932
 C         1.344921        -0.083385         0.130554
 C         2.365900         1.137625         0.054150
 C         3.221101        -0.136106         0.132827
 C         2.273759        -0.784097        -0.924359
 O         4.570601        -0.134542         0.649490
 C         4.296719        -0.229752         2.092809
 O         2.833055        -0.257726         2.453651
 C         2.336405        -0.800403         1.151015
 H        -0.577235         0.682734         0.696249
 H        -0.296554         0.455017        -0.978805
 H        -0.570207        -0.932761        -0.059405
 H         2.213745         1.582351        -1.008020
 H         2.484206         2.022609         0.727660
 H         2.325342        -0.289301        -1.884946
 H         2.336847        -1.917800        -1.030910
 H         4.911400        -1.068926         2.366795
 H         4.712816         0.767041         2.452830
 H         2.294219        -1.882142         1.101942
