19
Iteration:  1701
 C        -0.123615        -0.084706         0.030520
 C         1.434813        -0.011924         0.096199
 C         2.361219         1.211352         0.041683
 C         3.205818        -0.088935         0.120490
 C         2.279665        -0.811721        -0.977463
 O         4.478410        -0.145253         0.739064
 C         4.422624        -0.492810         2.083082
 O         2.824728        -0.085236         2.364460
 C         2.277925        -0.661476         1.122931
 H        -0.659632         0.434291         0.894949
 H        -0.398835         0.479353        -0.890234
 H        -0.440156        -1.128087         0.156552
 H         2.429019         1.570084        -1.001208
 H         2.263522         1.778274         0.897177
 H         2.466076        -0.344892        -1.975333
 H         2.315431        -1.917246        -0.868022
 H         4.519733        -1.543770         2.376109
 H         5.006491         0.180748         2.593593
 H         2.258668        -1.866755         1.166341
