19
Iteration:   746charge 0 multiplicity 1
 C        -0.113452        -0.195474         0.135324
 C         1.381638        -0.019116         0.057744
 C         2.366016         1.275872         0.119553
 C         3.246800        -0.013946         0.097242
 C         2.392439        -0.731840        -0.893092
 O         4.526924        -0.185629         0.623235
 C         4.198787        -0.514007         2.022210
 O         2.842802        -0.076855         2.336202
 C         2.319201        -0.680445         1.122389
 H        -0.592697         0.400044         0.830630
 H        -0.597146         0.131813        -0.780439
 H        -0.335694        -1.247156         0.362116
 H         2.406250         1.831777        -0.792039
 H         2.462888         1.857266         1.032838
 H         2.370345        -0.415700        -1.997151
 H         2.311910        -1.884423        -0.784512
 H         4.518580        -1.491246         2.219778
 H         4.732059         0.080033         2.701110
 H         2.225445        -1.842570         1.129683
