19
Iteration:  1557
 C        -0.140862         0.097596         0.123331
 C         1.333363        -0.061589         0.103772
 C         2.381550         1.090958         0.100640
 C         3.203596        -0.180273         0.122983
 C         2.395692        -0.717877        -1.041030
 O         4.515779        -0.380276         0.701761
 C         4.309998         0.110061         2.086707
 O         2.841013        -0.376145         2.328005
 C         2.296785        -0.837722         1.100054
 H        -0.428096         0.627413         1.136627
 H        -0.364169         0.751679        -0.757172
 H        -0.771007        -0.772438         0.126886
 H         2.513112         1.648335        -0.804175
 H         2.498162         1.733125         1.019159
 H         2.453739        -0.244375        -2.053087
 H         2.342180        -1.783809        -1.232751
 H         4.942321        -0.491563         2.701877
 H         4.331248         1.154019         2.289161
 H         2.324518        -1.891513         1.152640
