19
Iteration:  3633charge 0 multiplicity 1
 C        -0.103120        -0.121506        -0.041082
 C         1.378207         0.020815         0.083963
 C         2.342861         1.134318         0.163177
 C         3.197013        -0.136596         0.124613
 C         2.345965        -0.675352        -0.970159
 O         4.564179        -0.260392         0.693178
 C         4.273901        -0.154280         2.167559
 O         2.839220        -0.227950         2.339753
 C         2.315882        -0.770364         1.069604
 H        -0.788150         0.612868         0.435372
 H        -0.557658        -0.046591        -1.034833
 H        -0.321313        -1.106257         0.210809
 H         2.640661         1.702458        -0.718738
 H         2.241998         1.543920         1.171732
 H         2.340317        -0.188890        -1.947417
 H         2.020362        -1.723239        -1.008378
 H         4.821477        -0.819407         2.849645
 H         4.682159         0.805467         2.381446
 H         2.372795        -1.872472         1.174772
