19
Iteration:  1732charge 0 multiplicity 1
 C        -0.260257        -0.109845         0.106788
 C         1.323718         0.020652         0.073447
 C         2.409492         1.182136         0.015850
 C         3.312568        -0.072527         0.092055
 C         2.409748        -0.741291        -0.973552
 O         4.584798        -0.265409         0.592158
 C         4.198714        -0.371911         2.195785
 O         2.855877        -0.150701         2.412403
 C         2.275718        -0.672357         1.088613
 H        -0.575486         0.668327         0.864678
 H        -0.873922         0.225440        -0.712636
 H        -0.461043        -1.116578         0.332054
 H         2.395642         1.638127        -0.941629
 H         2.386762         1.895319         0.807931
 H         2.603801        -0.189138        -1.895227
 H         2.526190        -1.793224        -0.991441
 H         4.620617        -1.391786         2.459844
 H         4.871325         0.354576         2.683170
 H         2.332381        -1.788863         1.342377
