19
Iteration:  2773
 C        -0.157226         0.036368         0.043987
 C         1.324610        -0.066132         0.062335
 C         2.353610         1.103276         0.142396
 C         3.289851        -0.181362         0.092552
 C         2.401037        -0.754243        -0.960928
 O         4.553017        -0.163750         0.707180
 C         4.249494        -0.084303         2.149519
 O         2.811666        -0.352920         2.307942
 C         2.325985        -0.798071         1.081245
 H        -0.478869         0.660658         0.809078
 H        -0.374825         0.616168        -0.804852
 H        -0.731340        -0.899797         0.066009
 H         2.509028         1.690010        -0.748423
 H         2.396097         1.737956         1.008260
 H         2.528917        -0.356477        -1.998379
 H         2.370656        -1.887076        -1.027966
 H         4.936466        -0.776741         2.742576
 H         4.270834         0.960286         2.435526
 H         2.203508        -1.892928         1.155227
