19
Iteration:  2735
 C        -0.110331        -0.065183         0.019785
 C         1.401183        -0.041040         0.104335
 C         2.315986         1.096424         0.007888
 C         3.226583        -0.187598         0.143056
 C         2.384906        -0.636730        -1.020379
 O         4.552043        -0.225065         0.676652
 C         4.250916        -0.099532         2.172726
 O         2.830610        -0.364940         2.381909
 C         2.296586        -0.723591         1.138278
 H        -0.387492         0.736967         0.831305
 H        -0.363373         0.273604        -1.055692
 H        -0.735102        -0.935772         0.259779
 H         2.475712         1.799793        -0.868966
 H         2.307736         1.658703         0.999509
 H         2.508140        -0.116979        -1.987734
 H         2.391772        -1.714739        -1.069201
 H         4.860344        -0.853249         2.657601
 H         4.604160         0.901136         2.548073
 H         1.939918        -1.772650         1.174052
