19
Iteration:  4328charge 0 multiplicity 1
 C        -0.081401        -0.074632        -0.038626
 C         1.423549        -0.084374         0.109576
 C         2.251798         1.229883         0.079761
 C         3.212082        -0.086669         0.072993
 C         2.505650        -0.837022        -0.972856
 O         4.527664        -0.120229         0.674517
 C         4.285117        -0.344728         2.041440
 O         2.816185        -0.178226         2.419393
 C         2.212274        -0.707305         1.225111
 H        -0.388232         0.921802         0.395578
 H        -0.236645        -0.033771        -1.114558
 H        -0.501292        -0.990032         0.500903
 H         2.198381         1.945356        -0.752031
 H         2.326681         1.746659         0.994247
 H         2.345716        -0.433469        -2.026518
 H         2.449229        -1.883421        -0.913449
 H         4.501553        -1.403545         2.305806
 H         4.841272         0.257672         2.736238
 H         2.165839        -1.827896         1.376838
