19
Iteration:  4561charge 0 multiplicity 1
 C        -0.107880        -0.053459         0.029954
 C         1.402225        -0.115910         0.100480
 C         2.260022         1.184658        -0.009230
 C         3.274544        -0.186532         0.119733
 C         2.385743        -0.790495        -0.992710
 O         4.558597        -0.086673         0.758273
 C         4.255448        -0.392737         2.134796
 O         2.800394        -0.122197         2.371945
 C         2.334591        -0.692776         1.104262
 H        -0.658350         0.467583         0.919216
 H        -0.474093         0.580393        -0.841180
 H        -0.568779        -1.047073         0.100378
 H         2.479181         1.929687        -0.738218
 H         2.252263         1.745228         0.887933
 H         2.379083        -0.279497        -1.896818
 H         2.557225        -1.830236        -1.154881
 H         4.613426        -1.451945         2.125124
 H         4.856137         0.301200         2.697600
 H         2.078217        -1.841117         1.186391
