19
Iteration:  1335
 C        -0.208010        -0.060899        -0.062042
 C         1.356937        -0.000713         0.142262
 C         2.434084         1.121662         0.202517
 C         3.229974        -0.222182         0.089207
 C         2.259645        -0.627416        -0.994062
 O         4.604559        -0.272081         0.542153
 C         4.326016        -0.177223         2.087604
 O         2.823684        -0.189880         2.427456
 C         2.321322        -0.797408         1.198576
 H        -0.629491         0.317464         0.838837
 H        -0.745803         0.536556        -0.884306
 H        -0.511453        -1.195573        -0.262050
 H         2.523830         1.883881        -0.600873
 H         2.476521         1.612376         1.127710
 H         2.283030         0.074957        -1.831179
 H         2.238692        -1.826943        -1.161998
 H         4.789056        -1.077511         2.543119
 H         4.722991         0.725835         2.666656
 H         2.277245        -1.832539         1.292563
