19
Iteration:   480
 C        -0.145775        -0.035939         0.013446
 C         1.359306        -0.016951         0.134842
 C         2.270270         1.182348         0.061928
 C         3.272511        -0.106043         0.124194
 C         2.294496        -0.756390        -0.951467
 O         4.612973        -0.212342         0.666054
 C         4.350633        -0.259651         2.110693
 O         2.828105        -0.240544         2.345021
 C         2.339778        -0.741414         1.159382
 H        -0.702159         0.650362         0.773216
 H        -0.284936         0.313468        -0.965889
 H        -0.442769        -1.105195         0.229140
 H         2.199219         1.665674        -0.878446
 H         2.205387         1.930871         0.917926
 H         2.090842        -0.409356        -2.052296
 H         2.114448        -1.866661        -0.934859
 H         4.750937        -1.262238         2.328574
 H         4.771684         0.608217         2.566643
 H         2.265010        -1.809806         1.217870
