19
Iteration:  2402charge 0 multiplicity 1
 C        -0.100599        -0.027540         0.065343
 C         1.404704        -0.075549        -0.010161
 C         2.344185         1.119557         0.100368
 C         3.246974        -0.130984         0.188496
 C         2.357791        -0.696760        -1.028946
 O         4.573161        -0.269220         0.622835
 C         4.239494        -0.229103         2.038124
 O         2.810577        -0.158603         2.398590
 C         2.260485        -0.724956         1.211189
 H        -0.602665         0.508907         0.806696
 H        -0.558262         0.183367        -0.934279
 H        -0.390110        -1.074746         0.483115
 H         2.326745         1.769268        -0.787470
 H         2.164412         1.503025         1.142524
 H         2.589542        -0.249902        -1.952034
 H         2.392320        -1.768633        -1.032217
 H         4.689649        -1.104432         2.566733
 H         4.793911         0.715799         2.409697
 H         2.331514        -1.792229         1.390641
