19
Iteration:  4460charge 0 multiplicity 1
 C        -0.072477         0.074873        -0.089874
 C         1.399506        -0.051632         0.115666
 C         2.393369         1.060409         0.151270
 C         3.223319        -0.211121         0.166874
 C         2.369990        -0.760152        -0.905321
 O         4.528917        -0.185397         0.674779
 C         4.341146         0.056260         2.040147
 O         2.737623        -0.356227         2.343987
 C         2.284843        -0.904884         1.164180
 H        -0.607636         0.555912         0.870406
 H        -0.383271         0.707488        -0.914631
 H        -0.669171        -0.941126        -0.140419
 H         2.438099         1.670682        -0.743986
 H         2.388505         1.434812         1.200210
 H         2.200661        -0.112849        -1.813527
 H         2.382151        -1.774809        -1.039632
 H         5.088203        -0.514675         2.654122
 H         4.455555         1.149538         2.164083
 H         2.079985        -2.024771         0.963223
