19
Iteration:  2612
 C        -0.134122        -0.001449         0.039507
 C         1.360251        -0.118028         0.110978
 C         2.460386         1.123057         0.145485
 C         3.209635        -0.151707         0.115315
 C         2.409810        -0.740442        -1.035905
 O         4.509552        -0.153229         0.649462
 C         4.191889        -0.146834         2.121978
 O         2.785198        -0.268913         2.363823
 C         2.347419        -0.800171         1.138457
 H        -0.282902         0.533701         1.073179
 H        -0.288000         0.652100        -0.812646
 H        -0.692911        -1.014591         0.055853
 H         2.583614         1.609758        -0.825736
 H         2.397086         1.828919         0.943493
 H         2.283975        -0.354439        -2.039409
 H         2.499778        -1.784015        -0.982493
 H         4.760245        -0.989979         2.484161
 H         4.627940         0.831823         2.333452
 H         2.161719        -1.876089         1.141960
