19
Iteration:  1720charge 0 multiplicity 1
 C        -0.085688        -0.083168         0.094511
 C         1.418337        -0.019496         0.034710
 C         2.262044         1.254168        -0.060162
 C         3.232308        -0.104587         0.164590
 C         2.397158        -0.717320        -0.949192
 O         4.548501        -0.284522         0.646353
 C         4.231324        -0.403323         2.109721
 O         2.866473        -0.165834         2.391890
 C         2.301030        -0.618666         1.185373
 H        -0.426996         0.423735         1.030792
 H        -0.626057         0.162514        -0.795501
 H        -0.354181        -1.080694         0.358646
 H         2.267013         1.739355        -0.991508
 H         2.275232         1.948802         0.792424
 H         2.402072        -0.351388        -1.977363
 H         2.355235        -1.772949        -0.973424
 H         4.403573        -1.494746         2.302316
 H         4.769598         0.323386         2.773844
 H         2.134313        -1.719134         1.125835
