19
Iteration:  3251
 C        -0.171744        -0.054527         0.067953
 C         1.408194        -0.057571        -0.005691
 C         2.426498         1.242044         0.130704
 C         3.253086        -0.101166         0.207949
 C         2.401604        -0.729589        -1.069832
 O         4.574328        -0.336987         0.738351
 C         4.278861        -0.013123         2.072439
 O         2.805562        -0.350761         2.346313
 C         2.255092        -0.790365         1.077047
 H        -0.631235         0.601703         0.870919
 H        -0.510112         0.062312        -0.986655
 H        -0.489403        -1.088874         0.405939
 H         2.221873         2.025032        -0.695311
 H         2.244869         1.545882         1.213448
 H         2.215436        -0.282342        -2.114674
 H         2.307513        -1.843139        -0.989347
 H         4.903742        -0.458643         2.856266
 H         4.227015         1.056300         2.264171
 H         2.134029        -1.912482         1.263933
