19
Iteration:  3939charge 0 multiplicity 1
 C        -0.149583        -0.090857        -0.046298
 C         1.388705        -0.040351         0.030454
 C         2.362586         1.141769         0.224083
 C         3.200777        -0.202556         0.116425
 C         2.338999        -0.643574        -1.028810
 O         4.579916        -0.311369         0.748550
 C         4.323558        -0.002450         2.070463
 O         2.793404        -0.277539         2.357534
 C         2.305337        -0.801389         1.175901
 H        -0.574569         0.588886         0.706650
 H        -0.487266         0.190638        -1.020121
 H        -0.467011        -1.056345         0.096705
 H         2.407879         1.813702        -0.681309
 H         2.452672         1.590411         1.228441
 H         2.405922        -0.191403        -2.018535
 H         2.087760        -1.702793        -1.255744
 H         5.046301        -0.638675         2.663137
 H         4.631826         1.084744         2.220903
 H         2.192223        -1.932340         1.073925
