19
Iteration:  4870charge 0 multiplicity 1
 C        -0.139389         0.036528        -0.004040
 C         1.370769        -0.088998         0.127279
 C         2.357437         1.079567         0.076930
 C         3.248494        -0.111173         0.153376
 C         2.373762        -0.826009        -1.033572
 O         4.534779        -0.019790         0.750244
 C         4.263786        -0.312854         2.091289
 O         2.830552        -0.204979         2.322300
 C         2.303237        -0.810140         1.110150
 H        -0.402001         0.870831         0.523562
 H        -0.586453         0.051711        -1.051351
 H        -0.531342        -0.871557         0.406621
 H         2.303256         1.826267        -0.695146
 H         2.522426         1.665938         1.059476
 H         2.364720        -0.149401        -1.889380
 H         2.304287        -1.978450        -1.050690
 H         4.579859        -1.293841         2.593761
 H         4.675067         0.422879         2.643961
 H         2.500786        -1.886644         1.253577
