19
Iteration:  4847charge 0 multiplicity 1
 C        -0.156113        -0.008735         0.040826
 C         1.344891        -0.100179        -0.015485
 C         2.246574         1.095829         0.090980
 C         3.285128        -0.142529         0.193199
 C         2.370129        -0.693727        -1.042473
 O         4.606141        -0.188780         0.625188
 C         4.252930        -0.208991         2.201592
 O         2.849926        -0.209672         2.414906
 C         2.321529        -0.797539         1.123371
 H        -0.373046         0.804577         0.592487
 H        -0.426481         0.213642        -1.045083
 H        -0.719876        -0.886105         0.162228
 H         2.402649         1.676130        -0.843745
 H         2.230740         1.938823         0.871459
 H         2.351475        -0.025405        -1.872453
 H         2.525639        -1.862286        -1.027929
 H         4.708454        -1.207901         2.580201
 H         4.622656         0.544991         2.737197
 H         2.314957        -1.893434         1.313853
