19
Iteration:  2589charge 0 multiplicity 1
 C        -0.153431         0.024628         0.045675
 C         1.328791        -0.072565         0.050876
 C         2.306830         1.157023         0.084533
 C         3.252898        -0.157982         0.158504
 C         2.393680        -0.742849        -1.027836
 O         4.602539        -0.256935         0.708242
 C         4.272707        -0.185304         2.153892
 O         2.822216        -0.216964         2.339096
 C         2.324113        -0.792598         1.111818
 H        -0.497298         0.615584         0.955590
 H        -0.549435         0.334349        -0.923226
 H        -0.346417        -1.098293         0.320672
 H         2.163446         1.843598        -0.713586
 H         2.104655         1.642970         1.002344
 H         2.484916        -0.077325        -1.857981
 H         2.379523        -1.762435        -1.367303
 H         4.917635        -0.940236         2.607230
 H         4.548877         0.826771         2.389964
 H         2.207116        -1.911832         1.112879
