19
Iteration:  4407
 C        -0.141479         0.027019         0.053632
 C         1.404784        -0.040177         0.076604
 C         2.405256         1.194181         0.123405
 C         3.196099        -0.191705         0.168739
 C         2.417865        -0.730033        -0.974848
 O         4.540722        -0.303152         0.728097
 C         4.222727         0.093546         1.998824
 O         2.778426        -0.413535         2.345997
 C         2.315941        -0.856266         1.141216
 H        -0.437301         0.163283         1.212924
 H        -0.457343         0.858045        -0.608154
 H        -0.579019        -0.808834        -0.583424
 H         2.549288         1.592104        -0.858484
 H         2.370680         1.892149         0.988506
 H         2.798621        -0.584334        -2.065281
 H         2.429291        -1.857524        -0.912185
 H         4.875553        -0.269446         2.837946
 H         4.202203         1.177256         1.900381
 H         2.198150        -2.007881         1.069191
