19
Iteration:  2058charge 0 multiplicity 1
 C        -0.058312         0.049842         0.019920
 C         1.335120        -0.057100         0.081785
 C         2.274179         1.139855         0.055857
 C         3.214281        -0.101655         0.168731
 C         2.357103        -0.844575        -0.959757
 O         4.582198        -0.124157         0.603544
 C         4.310035        -0.363778         2.067739
 O         2.837908        -0.204664         2.413104
 C         2.280708        -0.731297         1.190495
 H        -0.437311         0.841013         0.709893
 H        -0.381410         0.362691        -0.939438
 H        -0.420101        -0.867390         0.364974
 H         2.435169         1.792150        -0.860027
 H         2.176599         1.801956         0.912496
 H         2.285400        -0.498585        -1.964015
 H         2.177959        -1.927359        -1.013859
 H         4.861541        -1.334199         2.480157
 H         4.770462         0.489266         2.582415
 H         2.167143        -1.832185         1.177409
