19
Iteration:   377
 C        -0.182496         0.085133         0.028885
 C         1.332965        -0.074315         0.102685
 C         2.386308         1.047001         0.064229
 C         3.260918        -0.246632         0.172220
 C         2.337183        -0.725524        -0.922104
 O         4.515938        -0.137760         0.654223
 C         4.298634        -0.049848         2.071255
 O         2.904648        -0.370363         2.352068
 C         2.290900        -0.817389         1.137708
 H        -0.498795         0.408476         0.997765
 H        -0.392321         1.019373        -0.633554
 H        -0.769270        -0.802684        -0.259536
 H         2.717236         1.672950        -0.909209
 H         2.277019         1.775361         0.874710
 H         2.447577        -0.263963        -1.935658
 H         2.202529        -1.926322        -1.058607
 H         4.933657        -0.754788         2.647965
 H         4.438989         1.005689         2.328822
 H         2.136579        -1.975554         1.202965
