19
Iteration:  3350
 C        -0.191080        -0.114324        -0.009139
 C         1.411264        -0.062211         0.071479
 C         2.314979         1.191901         0.010786
 C         3.303792        -0.118506         0.115115
 C         2.412039        -0.733794        -0.942732
 O         4.523114        -0.157327         0.686126
 C         4.327715        -0.326592         2.079924
 O         2.826717        -0.165882         2.377811
 C         2.245555        -0.745787         1.257810
 H        -0.638945         0.076837         1.019164
 H        -0.324683         0.667963        -0.779907
 H        -0.482503        -1.195382        -0.428513
 H         2.220173         1.825917        -0.902478
 H         2.247562         1.955339         0.811552
 H         2.621315        -0.096887        -1.893848
 H         2.242091        -1.761075        -1.244951
 H         4.526255        -1.358938         2.404091
 H         4.653133         0.425585         2.725186
 H         2.362108        -1.793880         1.483920
