19
Iteration:  1446
 C        -0.119980        -0.112678         0.102200
 C         1.355132         0.056749         0.072131
 C         2.340626         1.208986         0.114310
 C         3.293312        -0.163686         0.098255
 C         2.359540        -0.715451        -0.971187
 O         4.595446        -0.215898         0.558058
 C         4.240017        -0.434164         2.254548
 O         2.828914        -0.093429         2.312477
 C         2.272884        -0.721256         1.120822
 H        -0.714842         0.540576         0.834581
 H        -0.591650         0.076566        -0.920896
 H        -0.214198        -1.203786         0.464410
 H         2.225821         1.782017        -0.804570
 H         2.419213         1.900912         0.967055
 H         2.423242        -0.220523        -1.989406
 H         2.291536        -1.885880        -1.054085
 H         4.593527        -1.472799         2.337015
 H         4.724047         0.413629         2.666146
 H         2.072630        -1.736996         1.287305
