19
Iteration:  1812
 C        -0.153042         0.142955         0.045592
 C         1.360179        -0.025172         0.010096
 C         2.277081         1.122255         0.069634
 C         3.240051        -0.208423         0.183932
 C         2.394253        -0.770852        -0.945086
 O         4.521851        -0.263659         0.651061
 C         4.364040        -0.065809         2.150011
 O         2.908700        -0.343265         2.346827
 C         2.231388        -0.793358         1.139087
 H        -0.566036         0.373839         0.993631
 H        -0.547059         0.746891        -0.813284
 H        -0.691676        -0.804033        -0.239202
 H         2.546515         1.759115        -0.790679
 H         2.129455         1.723627         0.948257
 H         2.436327        -0.446603        -1.986783
 H         2.210028        -1.879840        -1.001353
 H         5.017467        -0.887678         2.494669
 H         4.687854         0.905578         2.411200
 H         2.236825        -1.946702         1.391788
