19
Iteration:  1453charge 0 multiplicity 1
 C        -0.149761        -0.134193         0.096473
 C         1.345516         0.029900         0.121612
 C         2.347680         1.236365         0.098169
 C         3.252038        -0.190525         0.125067
 C         2.388997        -0.694895        -0.981710
 O         4.523101        -0.241641         0.581699
 C         4.250271        -0.397500         2.188407
 O         2.864639        -0.121227         2.292257
 C         2.278180        -0.660568         1.112758
 H        -0.565415         0.548538         0.748300
 H        -0.544984         0.055517        -0.894505
 H        -0.352418        -1.231330         0.263319
 H         2.441033         1.886770        -0.781240
 H         2.363660         1.827367         0.970732
 H         2.771512        -0.243765        -1.852434
 H         2.293803        -1.735111        -0.879913
 H         4.545422        -1.390463         2.532242
 H         4.940214         0.330352         2.726368
 H         2.258704        -1.839413         1.261509
