19
Iteration:  2734
 C        -0.116405        -0.066195         0.016238
 C         1.406708        -0.042564         0.113454
 C         2.321832         1.102878         0.004130
 C         3.218934        -0.187873         0.148329
 C         2.386715        -0.634002        -1.020916
 O         4.557793        -0.228459         0.676672
 C         4.250801        -0.090744         2.176540
 O         2.831990        -0.363237         2.375678
 C         2.294923        -0.729913         1.136403
 H        -0.426541         0.741092         0.819776
 H        -0.365991         0.270406        -1.034573
 H        -0.732919        -0.945258         0.258213
 H         2.465960         1.786879        -0.865136
 H         2.313018         1.637603         0.980790
 H         2.487039        -0.102293        -2.001892
 H         2.397492        -1.691184        -1.066861
 H         4.839749        -0.880532         2.643531
 H         4.610494         0.880313         2.547590
 H         1.927987        -1.798645         1.204759
