19
Iteration:  1669charge 0 multiplicity 1
 C        -0.181802         0.028073        -0.052812
 C         1.395572        -0.074616         0.129389
 C         2.360560         1.092351         0.105862
 C         3.270504        -0.194118         0.176117
 C         2.296454        -0.791953        -0.913190
 O         4.593808        -0.043244         0.540760
 C         4.329970        -0.358232         2.101719
 O         2.834460        -0.140447         2.455355
 C         2.266401        -0.765819         1.175248
 H        -0.644542         0.501089         0.842400
 H        -0.376498         0.581136        -1.007819
 H        -0.744745        -0.930264        -0.240988
 H         2.504279         1.623701        -0.896130
 H         2.252003         1.805211         0.876409
 H         2.476179        -0.350688        -1.916191
 H         2.242144        -1.899609        -1.098212
 H         4.576032        -1.411747         2.193977
 H         4.892537         0.298784         2.655450
 H         2.036015        -1.839749         1.204495
