19
Iteration:  2890charge 0 multiplicity 1
 C        -0.174926         0.041320         0.010853
 C         1.327454        -0.115248         0.065113
 C         2.367723         1.073728         0.118028
 C         3.322401        -0.187632         0.098426
 C         2.374943        -0.716904        -0.980368
 O         4.570098        -0.155596         0.684410
 C         4.231857        -0.085374         2.087167
 O         2.799991        -0.305120         2.412947
 C         2.320363        -0.805320         1.128801
 H        -0.445797         0.827050         0.714849
 H        -0.339208         0.395420        -1.097684
 H        -0.444222        -1.018427         0.220883
 H         2.380812         2.008752        -0.541461
 H         2.393722         1.454354         1.216893
 H         2.416104        -0.320686        -1.933503
 H         2.410480        -1.843295        -1.145954
 H         4.779904        -0.939420         2.412522
 H         4.451282         0.852995         2.631563
 H         2.150674        -1.845585         0.843674
