19
Iteration:  4007charge 0 multiplicity 1
 C        -0.177544        -0.034003        -0.021807
 C         1.388138        -0.119057         0.050129
 C         2.287642         1.125126         0.002143
 C         3.245209        -0.124504         0.152173
 C         2.399134        -0.752837        -0.959844
 O         4.548877        -0.023819         0.659213
 C         4.202718        -0.396192         2.207213
 O         2.861369        -0.199392         2.384869
 C         2.361059        -0.711449         1.155669
 H        -0.329444         0.529572         0.811433
 H        -0.495485         0.497549        -0.977418
 H        -0.695577        -0.970926         0.062615
 H         2.283666         1.754632        -0.918519
 H         2.309917         1.754055         0.923672
 H         2.464363        -0.370045        -1.996463
 H         2.301287        -1.942218        -0.999906
 H         4.756479        -1.384855         2.340644
 H         4.769101         0.342093         2.901962
 H         2.508196        -1.817130         1.332377
