19
Iteration:  1887
 C        -0.068100         0.024386         0.090739
 C         1.350942        -0.049762         0.041834
 C         2.423848         1.111619         0.168996
 C         3.183440        -0.166315         0.165473
 C         2.338805        -0.722932        -1.093474
 O         4.492959        -0.400089         0.612396
 C         4.325801         0.024776         2.063415
 O         2.786147        -0.295975         2.465748
 C         2.311604        -0.765123         1.101555
 H        -0.492854         0.742202         0.776783
 H        -0.420865         0.451781        -0.888037
 H        -0.684883        -0.833970         0.388148
 H         2.473711         1.724333        -0.708195
 H         2.340765         1.459572         1.125882
 H         2.489711        -0.074163        -1.929006
 H         2.484264        -1.809042        -1.253367
 H         5.113396        -0.628694         2.702311
 H         4.549326         1.118830         2.099856
 H         2.195183        -1.847744         1.187040
