19
Iteration:  3642
 C        -0.121409        -0.150983        -0.025986
 C         1.363521        -0.014194         0.074097
 C         2.349242         1.183319         0.171227
 C         3.274737        -0.149993         0.152060
 C         2.315195        -0.687087        -1.024325
 O         4.563872        -0.302617         0.709744
 C         4.264208        -0.165704         2.076274
 O         2.781045        -0.211958         2.357681
 C         2.364040        -0.703204         1.173831
 H        -0.749071         0.574174         0.637974
 H        -0.256261         0.031089        -1.167052
 H        -0.324779        -1.227782         0.141408
 H         2.249151         1.886871        -0.698291
 H         2.424748         1.776287         1.106499
 H         2.440558        -0.167537        -2.019821
 H         2.299519        -1.766685        -1.060677
 H         4.766202        -1.017770         2.517719
 H         4.532425         0.786959         2.459059
 H         2.297542        -1.731503         1.056003
