19
Iteration:   988
 C        -0.264836        -0.062460         0.009063
 C         1.345306        -0.042178         0.092055
 C         2.387612         1.186408         0.101168
 C         3.189073        -0.119223         0.168901
 C         2.236170        -0.630491        -0.949493
 O         4.549535        -0.208445         0.645340
 C         4.405201        -0.276896         2.064860
 O         2.903048        -0.261264         2.402028
 C         2.389038        -0.774264         1.141251
 H        -0.876659         0.374411         0.858400
 H        -0.632079         0.300737        -1.038669
 H        -0.530582        -1.119140        -0.118427
 H         2.392369         1.592680        -0.910524
 H         2.548149         1.900688         0.978972
 H         2.405741         0.028824        -1.813987
 H         2.315901        -1.775610        -1.153125
 H         4.720867        -1.265781         2.481907
 H         4.839780         0.615915         2.532127
 H         2.240920        -1.848334         1.109560
