19
Iteration:  2320
 C        -0.247120        -0.026560        -0.020768
 C         1.336415        -0.063918         0.053007
 C         2.396112         1.148108         0.102373
 C         3.268170        -0.083208         0.145491
 C         2.386689        -0.786221        -0.947489
 O         4.511709        -0.257591         0.630167
 C         4.333829        -0.136801         2.110903
 O         2.890346        -0.227567         2.468347
 C         2.261986        -0.778275         1.054767
 H        -0.416055         0.431029         1.063226
 H        -0.723303         0.730021        -0.696306
 H        -0.763091        -0.971835        -0.134758
 H         2.576511         1.624056        -0.832820
 H         2.498166         1.808796         0.897473
 H         2.418223        -0.344201        -1.979633
 H         2.306152        -1.903448        -1.013740
 H         4.658390        -1.067087         2.611322
 H         4.734766         0.728432         2.524325
 H         2.358551        -1.893534         1.218663
