19
Iteration:  3618
 C        -0.164476        -0.077998        -0.053041
 C         1.355595        -0.075207         0.044832
 C         2.423514         1.190251         0.169904
 C         3.288369        -0.171506         0.181850
 C         2.312801        -0.709005        -1.020352
 O         4.534105        -0.210604         0.669665
 C         4.242888        -0.067097         2.163656
 O         2.879939        -0.296938         2.360653
 C         2.271897        -0.838293         1.138695
 H        -0.459754         0.866824         0.541875
 H        -0.485397         0.036132        -1.145680
 H        -0.589689        -1.068634         0.400585
 H         2.368436         1.805818        -0.767126
 H         2.465690         1.822274         1.074905
 H         2.371611        -0.129900        -1.990603
 H         2.439316        -1.769429        -1.125299
 H         4.906953        -0.857913         2.489927
 H         4.497208         0.900873         2.611387
 H         2.009096        -1.846617         1.133842
