19
Iteration:  2500charge 0 multiplicity 1
 C        -0.203169         0.081204         0.009540
 C         1.379774        -0.179778         0.053913
 C         2.307401         1.116312         0.099851
 C         3.208123        -0.092256         0.110976
 C         2.373144        -0.753644        -0.986749
 O         4.655505        -0.227385         0.633370
 C         4.294707        -0.152755         2.150945
 O         2.879338        -0.220974         2.410119
 C         2.281036        -0.824604         1.131194
 H        -0.653620         0.493207         0.920452
 H        -0.380488         0.810123        -0.844219
 H        -0.958448        -0.804702        -0.273900
 H         2.200927         1.666412        -0.788072
 H         2.105671         1.668801         1.010118
 H         2.475836        -0.303887        -1.935642
 H         2.252472        -1.836914        -0.959156
 H         4.813505        -1.047558         2.612601
 H         4.602368         0.771677         2.638177
 H         2.215117        -1.921917         1.300182
