19
Iteration:   285
 C        -0.172817        -0.110092         0.053904
 C         1.386895         0.066287         0.059215
 C         2.341248         1.210042        -0.054129
 C         3.215452        -0.087396         0.138998
 C         2.356065        -0.739539        -0.971026
 O         4.549053        -0.086006         0.722086
 C         4.256697        -0.525888         2.108444
 O         2.893693        -0.149118         2.379018
 C         2.322729        -0.716072         1.161226
 H        -0.655506         0.596061         0.834663
 H        -0.810221        -0.353476        -0.735371
 H        -0.075206        -1.140627         0.562228
 H         2.436636         1.710082        -0.975845
 H         2.167384         1.922752         0.810194
 H         2.348143        -0.357842        -2.033901
 H         2.185601        -1.777770        -0.936207
 H         4.509609        -1.643476         2.162229
 H         4.848830         0.150418         2.798549
 H         2.402405        -1.838146         1.149799
