19
Iteration:  1674
 C        -0.218497        -0.005816        -0.050915
 C         1.418869        -0.022691         0.106299
 C         2.362024         1.085760         0.081583
 C         3.287342        -0.189247         0.138032
 C         2.290434        -0.792603        -0.882761
 O         4.625050        -0.037058         0.556719
 C         4.262627        -0.374921         2.088629
 O         2.869042        -0.145755         2.451366
 C         2.256182        -0.763612         1.182343
 H        -0.693066         0.430403         0.820574
 H        -0.280147         0.595785        -0.950819
 H        -0.809305        -0.940175        -0.124909
 H         2.599178         1.564904        -0.886416
 H         2.219276         1.765733         1.006070
 H         2.465266        -0.291731        -1.833461
 H         2.202566        -1.857063        -1.106576
 H         4.433162        -1.480508         2.105797
 H         4.862576         0.417975         2.727601
 H         2.106613        -1.855497         1.370041
