19
Iteration:   966
 C        -0.119037         0.060162         0.034857
 C         1.363896        -0.040807         0.178611
 C         2.315552         1.134442         0.152620
 C         3.214760        -0.131884         0.079278
 C         2.378626        -0.803166        -0.992323
 O         4.528014        -0.078918         0.588863
 C         4.301662        -0.209309         2.109342
 O         2.909420        -0.400917         2.361067
 C         2.301937        -0.764554         1.143122
 H        -0.442749         0.727755         0.865054
 H        -0.422124         0.475739        -0.996683
 H        -0.720869        -0.858452         0.088866
 H         2.258704         1.751974        -0.732025
 H         2.348232         1.713840         1.150469
 H         2.153472        -0.330776        -1.947055
 H         2.091489        -1.916324        -0.913645
 H         4.868834        -1.100419         2.511017
 H         4.620131         0.769998         2.437356
 H         2.077624        -1.839084         1.083624
