19
Iteration:  3291charge 0 multiplicity 1
 C        -0.108184         0.015592        -0.001391
 C         1.388342        -0.123978         0.138594
 C         2.379382         1.136182         0.118131
 C         3.301432        -0.131250         0.080039
 C         2.356196        -0.761580        -1.016580
 O         4.519120        -0.146657         0.702147
 C         4.272885        -0.104091         2.095326
 O         2.787545        -0.281773         2.388213
 C         2.285412        -0.863075         1.174835
 H        -0.772398         0.546212         0.792190
 H        -0.362478         0.500870        -0.999307
 H        -0.568540        -0.943496        -0.116320
 H         2.531224         1.537290        -0.844593
 H         2.233805         1.750718         0.982035
 H         2.236060        -0.174136        -1.872958
 H         2.504660        -1.815183        -1.273770
 H         4.913960        -0.903031         2.461185
 H         4.643283         0.904631         2.541160
 H         2.141976        -1.907060         1.037125
