19
Iteration:  2499
 C        -0.205119         0.082441         0.010763
 C         1.374224        -0.181491         0.061235
 C         2.310438         1.120761         0.098373
 C         3.216510        -0.098949         0.114530
 C         2.375808        -0.755333        -0.977805
 O         4.655044        -0.221258         0.631597
 C         4.300717        -0.154271         2.146594
 O         2.876732        -0.219518         2.407795
 C         2.273205        -0.823979         1.125801
 H        -0.652743         0.476336         0.925246
 H        -0.357012         0.826727        -0.858592
 H        -0.970635        -0.800616        -0.265301
 H         2.167478         1.651554        -0.791215
 H         2.109833         1.675262         1.016402
 H         2.502741        -0.285037        -1.952766
 H         2.269458        -1.859288        -0.987430
 H         4.792055        -1.062151         2.659170
 H         4.596391         0.767426         2.610425
 H         2.207639        -1.952161         1.272589
