19
Iteration:  1969charge 0 multiplicity 1
 C        -0.193116        -0.022984         0.058116
 C         1.296505        -0.043281         0.132967
 C         2.374441         1.132307         0.092663
 C         3.208725        -0.172290         0.123474
 C         2.459945        -0.779101        -0.995397
 O         4.658276        -0.198895         0.605593
 C         4.223174        -0.284758         2.105130
 O         2.863480        -0.156511         2.342669
 C         2.246583        -0.708460         1.147466
 H        -0.408234         0.428800         1.069618
 H        -0.558027         0.695715        -0.646500
 H        -0.684603        -0.969697        -0.053553
 H         2.269337         1.748365        -0.806013
 H         2.441482         1.854485         0.967482
 H         2.521213        -0.434641        -2.051148
 H         2.161992        -1.827517        -0.977048
 H         4.658220        -1.252387         2.383751
 H         4.611507         0.484886         2.770614
 H         2.163198        -1.837821         1.405866
