19
Iteration:  2371charge 0 multiplicity 1
 C        -0.171177         0.022062        -0.025907
 C         1.365730        -0.119833         0.158803
 C         2.405041         1.072288         0.037521
 C         3.258669        -0.125874         0.149362
 C         2.275529        -0.747749        -0.944176
 O         4.532324        -0.145463         0.656468
 C         4.252376        -0.226789         2.086423
 O         2.889624        -0.257578         2.342461
 C         2.352204        -0.711548         1.191742
 H        -0.709031         0.663208         0.622653
 H        -0.299557         0.350622        -1.012548
 H        -0.627077        -0.953155         0.010934
 H         2.385462         1.728890        -0.903599
 H         2.431009         1.624521         1.051933
 H         2.211329        -0.255978        -1.891352
 H         2.373601        -1.865731        -1.021462
 H         4.668474        -1.064979         2.589978
 H         4.518714         0.712610         2.699166
 H         2.352324        -1.783725         1.240032
