19
Iteration:  2954charge 0 multiplicity 1
 C        -0.165151        -0.170554         0.015953
 C         1.371179        -0.042886         0.019373
 C         2.462646         1.269302         0.087098
 C         3.224966        -0.142003         0.186508
 C         2.324396        -0.677520        -0.965534
 O         4.541280        -0.217860         0.684387
 C         4.254796        -0.203475         2.107452
 O         2.833183        -0.221148         2.392619
 C         2.290876        -0.782683         1.077172
 H        -0.677727         0.348575         0.852904
 H        -0.595064         0.477529        -0.876808
 H        -0.486920        -1.209300        -0.107848
 H         2.599895         1.878709        -0.849789
 H         2.497937         1.764084         1.114044
 H         2.486452        -0.337113        -1.995720
 H         2.244136        -1.830517        -0.897057
 H         4.770530        -1.180959         2.401032
 H         4.662177         0.654715         2.723793
 H         2.255672        -1.882655         1.280239
