19
Iteration:  3741charge 0 multiplicity 1
 C        -0.140271         0.004953         0.033448
 C         1.332091        -0.146010         0.020650
 C         2.330230         1.057304         0.058031
 C         3.242302        -0.097882         0.102663
 C         2.405091        -0.786777        -1.037893
 O         4.543400        -0.044636         0.735490
 C         4.283537        -0.282775         2.180419
 O         2.855476        -0.221775         2.373176
 C         2.268058        -0.726835         1.170394
 H        -0.464266         0.468753         1.055026
 H        -0.385182         0.556074        -0.932632
 H        -0.520739        -1.010555        -0.002318
 H         2.464050         1.709967        -0.839191
 H         2.049717         1.790282         0.839138
 H         2.611522        -0.335448        -2.043802
 H         2.576257        -1.902095        -1.121944
 H         4.636276        -1.299668         2.259577
 H         4.841816         0.439415         2.768062
 H         2.068589        -1.754072         1.164012
