19
Iteration:  4765
 C        -0.132615         0.081151         0.000208
 C         1.406495        -0.124241         0.046771
 C         2.353387         1.136010         0.185291
 C         3.263606        -0.174681         0.140293
 C         2.416210        -0.707174        -0.998132
 O         4.497642        -0.330699         0.694564
 C         4.237591         0.060764         2.115333
 O         2.876283        -0.321452         2.333528
 C         2.284439        -0.873335         1.117572
 H        -0.607174         0.181544         1.026691
 H        -0.397621         0.906282        -0.568056
 H        -0.569146        -0.899665        -0.277409
 H         2.230737         1.639223        -0.792303
 H         2.049695         1.632262         1.115626
 H         2.413855        -0.251315        -2.030349
 H         2.442827        -1.720356        -1.230752
 H         4.894570        -0.466213         2.684494
 H         4.297100         1.208483         2.243300
 H         2.231393        -1.931204         1.304850
