19
Iteration:   421charge 0 multiplicity 1
 C        -0.121001         0.048039         0.157195
 C         1.397467        -0.100183         0.057487
 C         2.432910         1.115108         0.150474
 C         3.241082        -0.210457         0.146336
 C         2.340239        -0.679580        -1.023782
 O         4.540633        -0.403142         0.728185
 C         4.152569         0.181130         2.018931
 O         2.892438        -0.384997         2.303814
 C         2.316438        -0.853218         1.106146
 H        -0.402012         0.619705         1.029195
 H        -0.500513         0.711258        -0.711450
 H        -0.664645        -0.883549         0.213778
 H         2.426038         1.751705        -0.826135
 H         2.413168         1.783938         1.010866
 H         2.290725        -0.001841        -1.889248
 H         2.156051        -1.808987        -1.331457
 H         4.867895        -0.205820         2.729839
 H         4.047423         1.280557         2.053721
 H         2.240353        -2.008876         1.070004
