19
Iteration:  2556
 C        -0.162408        -0.092910         0.007218
 C         1.400212         0.010567         0.132644
 C         2.441891         1.194796         0.106989
 C         3.227108        -0.149556         0.112170
 C         2.347497        -0.730829        -0.962741
 O         4.537284        -0.252349         0.610265
 C         4.218380        -0.195167         2.124203
 O         2.798573        -0.249823         2.415264
 C         2.347354        -0.736716         1.111796
 H        -0.732174         0.617743         0.691083
 H        -0.576290         0.089679        -1.015883
 H        -0.326552        -1.267670         0.222012
 H         2.321873         1.818106        -0.763847
 H         2.396551         1.750145         1.020420
 H         2.447552        -0.117906        -1.822245
 H         2.339389        -1.797453        -1.213745
 H         4.836672        -0.959884         2.734419
 H         4.676434         0.802920         2.280138
 H         2.315260        -1.845839         1.087218
