19
Iteration:  4749charge 0 multiplicity 1
 C        -0.104011         0.081552         0.038282
 C         1.364748        -0.104651         0.073841
 C         2.252136         1.081825         0.171647
 C         3.213065        -0.179669         0.133004
 C         2.462664        -0.769954        -0.989808
 O         4.610201        -0.264992         0.682389
 C         4.191765         0.030267         1.986354
 O         2.782195        -0.372463         2.398546
 C         2.358237        -0.800633         1.114616
 H        -0.332394         0.562523         0.971337
 H        -0.318409         1.008479        -0.745017
 H        -0.797810        -0.734507        -0.264895
 H         2.459063         1.865907        -0.530362
 H         2.392103         1.629765         1.103193
 H         2.601124        -0.262473        -1.917059
 H         2.407825        -1.935614        -1.033072
 H         4.854431        -0.489639         2.869746
 H         4.198316         1.112850         2.151061
 H         2.307317        -1.979449         0.978541
