19
Iteration:   851
 C        -0.162703        -0.042055         0.008444
 C         1.361501        -0.048676         0.096550
 C         2.309216         1.144298         0.120707
 C         3.214466        -0.196165         0.158149
 C         2.320307        -0.575861        -0.978911
 O         4.564046        -0.337792         0.641785
 C         4.373485        -0.097232         2.080426
 O         2.902711        -0.247454         2.387507
 C         2.282904        -0.850554         1.164327
 H        -0.490939         0.230729         1.069963
 H        -0.481796         0.625081        -0.792185
 H        -0.647003        -1.091307        -0.233808
 H         2.281413         1.824552        -0.823946
 H         2.138080         1.763500         0.993225
 H         2.363744         0.086215        -1.874329
 H         2.139847        -1.573760        -1.249230
 H         4.882106        -0.953722         2.546872
 H         4.694507         0.973716         2.262947
 H         2.181076        -1.876531         1.052826
