19
Iteration:  2967charge 0 multiplicity 1
 C        -0.093792        -0.135522        -0.005572
 C         1.388484         0.098187         0.135483
 C         2.371209         1.147121         0.112134
 C         3.245371        -0.142988         0.071025
 C         2.372116        -0.741143        -1.001046
 O         4.492464        -0.194975         0.684817
 C         4.257959        -0.272572         2.128856
 O         2.803919        -0.209850         2.337821
 C         2.334474        -0.728196         1.196723
 H        -0.619626         0.036141         0.902785
 H        -0.510903         0.401770        -0.967896
 H        -0.199009        -1.243776        -0.198444
 H         2.376598         1.856803        -0.781142
 H         2.493538         1.799413         1.021764
 H         2.371651        -0.257384        -1.911609
 H         2.234577        -1.858411        -1.081810
 H         4.618692        -1.164305         2.661260
 H         4.774528         0.658596         2.456542
 H         2.120506        -1.786977         1.100571
