19
Iteration:  4073
 C        -0.140314        -0.178904         0.030309
 C         1.360302        -0.054438         0.097143
 C         2.331908         1.204852        -0.011656
 C         3.290998        -0.060972         0.094579
 C         2.374007        -0.722981        -1.043981
 O         4.576979        -0.243177         0.736006
 C         4.245786        -0.313646         2.158069
 O         2.824064        -0.164099         2.366886
 C         2.314630        -0.671480         1.189566
 H        -0.563783         0.136001         0.904835
 H        -0.548068         0.523412        -0.732849
 H        -0.605861        -1.123470        -0.152557
 H         2.353404         1.882795        -0.885374
 H         2.301942         1.921560         0.831202
 H         2.319954        -0.226701        -2.013648
 H         2.465737        -1.851637        -1.160376
 H         4.616035        -1.210305         2.668613
 H         4.570692         0.513671         2.847611
 H         2.262956        -1.816950         1.093157
