19
Iteration:   262charge 0 multiplicity 1
 C        -0.132702        -0.012299         0.123444
 C         1.371001        -0.127796         0.116979
 C         2.329573         1.114056        -0.000358
 C         3.275591        -0.016815         0.113318
 C         2.416272        -0.808722        -0.933740
 O         4.567754        -0.086362         0.680942
 C         4.238794        -0.381403         2.074190
 O         2.825668        -0.260272         2.367459
 C         2.269931        -0.636562         1.095377
 H        -0.377227         0.858691         0.873266
 H        -0.407480         0.261262        -0.815971
 H        -0.757212        -0.922647         0.237262
 H         2.156601         1.661141        -0.833210
 H         2.312499         1.753343         0.895061
 H         2.356485        -0.330131        -1.914711
 H         2.407342        -1.822883        -0.989543
 H         4.603015        -1.449889         2.221931
 H         4.814966         0.373271         2.669296
 H         2.290541        -1.738764         1.026337
