19
Iteration:  2322charge 0 multiplicity 1
 C        -0.233592        -0.023053        -0.017916
 C         1.326735        -0.054619         0.034027
 C         2.391152         1.141157         0.107655
 C         3.263060        -0.066291         0.136759
 C         2.382726        -0.809262        -0.934000
 O         4.510108        -0.249423         0.641162
 C         4.326287        -0.145735         2.094757
 O         2.901507        -0.238318         2.467626
 C         2.253808        -0.769325         1.058030
 H        -0.385572         0.422471         1.040367
 H        -0.723668         0.756407        -0.713697
 H        -0.790581        -0.996618        -0.131738
 H         2.557074         1.574887        -0.864617
 H         2.507324         1.814471         0.927806
 H         2.470594        -0.316392        -1.948797
 H         2.340221        -1.877150        -1.034834
 H         4.703041        -1.079531         2.645612
 H         4.770812         0.752435         2.545019
 H         2.355986        -1.864759         1.255611
