19
Iteration:  3743charge 0 multiplicity 1
 C        -0.151529        -0.000270         0.031970
 C         1.335573        -0.138249         0.015005
 C         2.334577         1.069872         0.055535
 C         3.243445        -0.098690         0.119311
 C         2.410650        -0.784396        -1.024779
 O         4.534070        -0.052388         0.720596
 C         4.267182        -0.274354         2.179021
 O         2.865393        -0.224351         2.373783
 C         2.279079        -0.720644         1.159964
 H        -0.452691         0.456253         1.089439
 H        -0.444685         0.543983        -1.030556
 H        -0.529380        -1.035399         0.051799
 H         2.493908         1.725243        -0.813097
 H         2.025493         1.752390         0.863498
 H         2.659083        -0.360456        -2.016043
 H         2.546043        -1.934078        -1.212094
 H         4.658237        -1.309145         2.333817
 H         4.883712         0.398635         2.812679
 H         2.053557        -1.783696         1.194181
