19
Iteration:  3488
 C        -0.114838        -0.028890        -0.033778
 C         1.382961        -0.062858         0.049756
 C         2.310085         1.117426         0.140285
 C         3.281311        -0.193979         0.160450
 C         2.377768        -0.691690        -0.961917
 O         4.519162        -0.291984         0.672728
 C         4.304501        -0.029914         2.132489
 O         2.829743        -0.288369         2.353888
 C         2.276239        -0.763929         1.156239
 H        -0.688378         0.132883         0.939080
 H        -0.536023         0.615043        -0.835548
 H        -0.448672        -0.993542        -0.246049
 H         2.309242         1.812519        -0.718289
 H         2.266205         1.739453         1.052454
 H         2.418573        -0.066962        -1.896075
 H         2.412701        -1.775603        -1.260783
 H         4.926791        -0.793019         2.620450
 H         4.725155         1.049734         2.170161
 H         2.129919        -1.937587         1.242925
