19
Iteration:  1715charge 0 multiplicity 1
 C        -0.022824        -0.092534         0.124846
 C         1.385760         0.002502         0.028909
 C         2.249615         1.242779        -0.059661
 C         3.230889        -0.092671         0.159159
 C         2.394333        -0.730740        -0.942877
 O         4.518941        -0.269338         0.682455
 C         4.289283        -0.438252         2.089774
 O         2.829362        -0.149676         2.374379
 C         2.302675        -0.633831         1.191118
 H        -0.382447         0.528319         0.938228
 H        -0.490947         0.180044        -0.869419
 H        -0.426812        -1.178164         0.174645
 H         2.338377         1.909819        -1.007958
 H         2.178547         2.013927         0.759035
 H         2.343420        -0.367770        -1.983320
 H         2.230680        -1.866209        -1.029970
 H         4.530369        -1.478598         2.322579
 H         4.902821         0.261983         2.677271
 H         2.161600        -1.721935         1.230242
