19
Iteration:  1070charge 0 multiplicity 1
 C        -0.115312         0.037077         0.133144
 C         1.397444        -0.059852         0.088178
 C         2.339456         1.122871        -0.011963
 C         3.220446        -0.129322         0.078368
 C         2.233660        -0.744347        -1.064283
 O         4.491298         0.014998         0.720942
 C         4.283191        -0.399245         2.163079
 O         2.913925        -0.301712         2.400393
 C         2.370354        -0.768485         1.120633
 H        -0.450059         0.475238         1.037725
 H        -0.505433         0.552501        -0.672319
 H        -0.550810        -0.969809         0.233056
 H         2.363708         1.703651        -0.897283
 H         2.503175         1.786138         0.852683
 H         2.294264        -0.249880        -2.108237
 H         2.091299        -1.870282        -1.079538
 H         4.841799        -1.301012         2.117200
 H         4.735020         0.292764         2.888064
 H         2.356597        -1.871910         0.818438
