19
Iteration:  2744
 C        -0.005025         0.215140         0.061925
 C         1.496898        -0.086562         0.121241
 C         2.438834        -1.332468         0.307371
 C         3.299490        -0.143733        -0.180952
 C         4.600629         0.565093        -0.211297
 C         4.257126         2.088417         0.083631
 O         2.927068         2.157430         0.671324
 C         2.563149         0.812603         0.899512
 O         2.148985         0.178734        -1.172966
 H        -0.436316        -0.327254         0.914613
 H        -0.062611         1.275256         0.189596
 H        -0.553972        -0.085742        -0.837323
 H         2.702447        -1.524987         1.327992
 H         2.274284        -2.201311        -0.291560
 H         5.127248         0.155955         0.713134
 H         5.235328         0.330161        -1.110049
 H         5.010983         2.331779         0.878490
 H         4.528378         2.750075        -0.689251
 H         2.657643         0.544947         1.976859
