19
Iteration:  3380charge 0 multiplicity 1
 C        -0.089819         0.081596        -0.049300
 C         1.453003        -0.010176         0.147047
 C         2.343644        -1.271240         0.326094
 C         3.312874        -0.072361        -0.062696
 C         4.574816         0.499971        -0.192284
 C         4.184359         2.060608        -0.132739
 O         3.116489         2.087866         0.731352
 C         2.530060         0.771359         0.957960
 O         2.307023         0.314976        -1.101834
 H        -0.676751        -0.216957         0.904489
 H        -0.459546         1.063624        -0.279318
 H        -0.468549        -0.590486        -0.819877
 H         2.467078        -1.530095         1.442697
 H         2.263287        -2.163098        -0.264783
 H         5.051656         0.332178         0.811829
 H         5.146322         0.329840        -1.047250
 H         5.162277         2.534883         0.384642
 H         4.000430         2.547436        -1.091491
 H         2.559119         0.583023         1.990482
