19
Iteration:  2503charge 0 multiplicity 1
 C        -0.068339        -0.013328         0.031896
 C         1.386602         0.035083         0.174867
 C         2.349314        -1.233992         0.290819
 C         3.251417        -0.080711        -0.004799
 C         4.616952         0.489243        -0.394886
 C         4.391568         2.056131         0.005079
 O         2.977410         2.137388         0.685391
 C         2.502948         0.817052         0.960983
 O         2.354535         0.289590        -1.102731
 H        -0.406511        -0.355843         1.093629
 H        -0.551005         0.990759        -0.131652
 H        -0.417647        -0.761381        -0.651596
 H         2.262806        -1.578387         1.318260
 H         2.032250        -2.013529        -0.479740
 H         5.438322         0.070559         0.206437
 H         4.584268         0.280455        -1.464010
 H         5.186130         2.347828         0.693757
 H         4.279364         2.745954        -0.714193
 H         2.642692         0.664956         2.071653
