19
Iteration:  3460charge 0 multiplicity 1
 C        -0.003273         0.190856         0.093844
 C         1.484639         0.008933         0.100879
 C         2.324187        -1.326596         0.344935
 C         3.328836        -0.181801         0.045190
 C         4.690545         0.481246        -0.307361
 C         4.207853         2.016141         0.059590
 O         2.851502         2.093063         0.513686
 C         2.569024         0.785134         0.936349
 O         2.302659         0.337332        -1.092061
 H        -0.509069         0.091030         1.006962
 H        -0.177692         1.234522        -0.304110
 H        -0.444173        -0.484104        -0.682345
 H         2.413610        -1.764663         1.371877
 H         2.262463        -2.070271        -0.542558
 H         5.489199         0.311230         0.271183
 H         5.043833         0.390360        -1.346924
 H         4.764776         2.267257         0.983685
 H         4.255481         2.817423        -0.716468
 H         2.732482         0.683131         1.961388
