19
Iteration:    73
 C         0.031607         0.204492        -0.001663
 C         1.454792        -0.111520         0.105695
 C         2.443759        -1.322430         0.295463
 C         3.230041        -0.109254        -0.040448
 C         4.587455         0.484372        -0.253660
 C         4.212758         2.032658        -0.073567
 O         2.995629         2.090510         0.695624
 C         2.479751         0.755731         0.936312
 O         2.253137         0.375400        -1.015252
 H        -0.442625         0.170010         1.013694
 H        -0.105993         1.254066        -0.432796
 H        -0.560081        -0.460724        -0.661782
 H         2.540459        -1.844490         1.262000
 H         2.468960        -2.081680        -0.556346
 H         5.220579         0.224180         0.716407
 H         5.130983         0.320375        -1.315050
 H         5.069780         2.495230         0.501383
 H         4.180199         2.786149        -1.008250
 H         2.753165         0.524060         2.014180
