19
Iteration:  3328charge 0 multiplicity 1
 C        -0.086747         0.046850        -0.041357
 C         1.478824         0.046798         0.096632
 C         2.373479        -1.352879         0.292629
 C         3.254249        -0.063470         0.023631
 C         4.610595         0.459181        -0.182659
 C         4.231980         2.010895        -0.255931
 O         3.023673         2.091628         0.784145
 C         2.549656         0.862059         1.001373
 O         2.319642         0.381205        -1.057356
 H        -0.521234        -0.056801         0.978652
 H        -0.482144         1.026249        -0.296003
 H        -0.555816        -0.706625        -0.681983
 H         2.458501        -2.053593         1.166753
 H         2.393545        -2.032868        -0.591525
 H         5.214150         0.358033         0.681389
 H         5.061106         0.161151        -1.099286
 H         4.993421         2.637910         0.151804
 H         4.001855         2.457362        -1.193065
 H         2.526379         0.588166         2.082823
