19
Iteration:  4946charge 0 multiplicity 1
 C        -0.040094         0.186781         0.049949
 C         1.488177         0.052040         0.051141
 C         2.391280        -1.335434         0.327661
 C         3.258368        -0.077476        -0.082127
 C         4.682443         0.540759        -0.034549
 C         4.176909         2.009437        -0.155897
 O         2.995848         2.185621         0.771011
 C         2.528565         0.739083         0.911770
 O         2.260639         0.177157        -1.212841
 H        -0.354689         0.009505         1.146209
 H        -0.502606         1.141691        -0.327858
 H        -0.291239        -0.755676        -0.597850
 H         2.609386        -1.589329         1.380320
 H         2.181725        -2.131663        -0.439836
 H         5.137674         0.469158         0.942670
 H         5.356575         0.280594        -0.818246
 H         5.000628         2.698126         0.155610
 H         3.871485         2.144942        -1.156992
 H         2.581932         0.598398         1.999732
