19
Iteration:   787charge 0 multiplicity 1
 C        -0.054831         0.046753         0.065884
 C         1.444617        -0.017452         0.023353
 C         2.342464        -1.291931         0.235121
 C         3.230645        -0.119394        -0.080338
 C         4.704642         0.463271        -0.140590
 C         4.325453         2.043013         0.008056
 O         3.063572         2.154349         0.759527
 C         2.504013         0.752660         0.951894
 O         2.196024         0.390653        -1.229267
 H        -0.368593         0.149791         1.103962
 H        -0.441264         0.972379        -0.339183
 H        -0.524383        -0.826348        -0.353476
 H         2.446461        -1.549166         1.306708
 H         2.160366        -2.128371        -0.471082
 H         5.215956         0.159183         0.801969
 H         5.315238         0.341690        -0.961024
 H         5.054317         2.605896         0.648584
 H         4.224342         2.652412        -0.908511
 H         2.323760         0.435005         1.953282
