19
Iteration:  3885charge 0 multiplicity 1
 C        -0.161161        -0.061361        -0.033799
 C         1.465033         0.033740         0.028182
 C         2.260241        -1.244504         0.228163
 C         3.263449        -0.059477         0.084455
 C         4.764407         0.516633        -0.114141
 C         4.272892         1.945567        -0.216649
 O         2.979016         2.049218         0.688975
 C         2.631106         0.798180         1.037306
 O         2.281319         0.512347        -1.046009
 H        -0.388328        -0.331272         1.056511
 H        -0.670037         0.840001        -0.317184
 H        -0.563498        -0.840337        -0.668597
 H         2.182781        -1.684662         1.335023
 H         2.483562        -1.946554        -0.511768
 H         5.499932         0.359019         0.682752
 H         5.236575         0.096498        -1.074544
 H         5.094346         2.577722         0.176074
 H         3.955678         2.401841        -1.152192
 H         2.575814         0.459374         2.060295
