19
Iteration:  2342charge 0 multiplicity 1
 C        -0.061880         0.051087        -0.020439
 C         1.477460         0.047915         0.096055
 C         2.311969        -1.322583         0.328577
 C         3.266003        -0.070175         0.012604
 C         4.638436         0.497573        -0.313540
 C         4.126045         2.049189        -0.241504
 O         3.140054         2.131375         0.879467
 C         2.536474         0.803555         1.066641
 O         2.316133         0.308230        -1.108936
 H        -0.601554        -0.511287         0.749076
 H        -0.256957         1.104585         0.001529
 H        -0.444186        -0.371125        -0.927224
 H         2.269056        -1.833137         1.229378
 H         2.178249        -2.093304        -0.490311
 H         5.284322         0.137316         0.495751
 H         5.032448         0.264924        -1.284040
 H         5.038718         2.629539        -0.002179
 H         3.679447         2.387194        -1.290776
 H         2.519062         0.630178         2.094595
