19
Iteration:  2818
 C        -0.017773         0.085831        -0.032151
 C         1.503846        -0.000713         0.134306
 C         2.383544        -1.273490         0.214214
 C         3.266474        -0.117504        -0.004388
 C         4.610092         0.475381        -0.227780
 C         4.191095         2.017217        -0.146337
 O         3.009953         2.084918         0.760082
 C         2.532048         0.759700         1.068777
 O         2.266441         0.412322        -1.053299
 H        -0.590630         0.062655         0.948298
 H        -0.126196         0.983887        -0.603870
 H        -0.377908        -0.714091        -0.640412
 H         2.537715        -1.706361         1.237210
 H         2.132057        -2.013358        -0.622890
 H         5.395596         0.364512         0.505174
 H         4.960255         0.356501        -1.221022
 H         4.982291         2.624503         0.145114
 H         3.895362         2.356015        -1.222051
 H         2.660812         0.428165         2.129786
