19
Iteration:  2800
 C         0.037167         0.178751        -0.003874
 C         1.507694        -0.003464         0.096199
 C         2.349343        -1.363336         0.283322
 C         3.310518        -0.034841         0.043965
 C         4.558634         0.546963        -0.369710
 C         4.166069         2.019322        -0.104288
 O         2.945417         2.037525         0.729473
 C         2.516987         0.776084         0.995889
 O         2.371243         0.352633        -1.022608
 H        -0.323423         0.107901         0.991869
 H        -0.326109         1.173222        -0.296745
 H        -0.491112        -0.645451        -0.597386
 H         2.312121        -2.052027         1.092770
 H         2.492281        -1.966444        -0.544020
 H         5.303297         0.125820         0.413282
 H         4.891124         0.139934        -1.388475
 H         4.926504         2.431780         0.635897
 H         3.948893         2.506577        -0.997590
 H         2.369668         0.558711         2.120597
