19
Iteration:   705charge 0 multiplicity 1
 C        -0.057776         0.254897        -0.094859
 C         1.461996        -0.041620         0.144096
 C         2.453746        -1.361224         0.311777
 C         3.241380        -0.169742        -0.067037
 C         4.550032         0.563504        -0.347746
 C         4.264487         2.036492         0.123136
 O         2.979368         2.178098         0.758986
 C         2.596617         0.777112         0.946552
 O         2.256237         0.182970        -1.107165
 H        -0.713608        -0.268849         0.613790
 H        -0.080077         1.361054         0.046559
 H        -0.570125         0.207309        -1.091371
 H         2.565554        -1.816225         1.254446
 H         2.332535        -2.052579        -0.553281
 H         5.315123         0.193289         0.313360
 H         5.053960         0.495326        -1.435518
 H         4.985801         2.230898         0.939932
 H         4.277101         2.768160        -0.710272
 H         2.460147         0.439078         2.039554
