19
Iteration:  2541
 C        -0.071215         0.109367         0.056737
 C         1.505990        -0.045901         0.124793
 C         2.354942        -1.261601         0.325849
 C         3.282947        -0.077464        -0.102801
 C         4.584077         0.503699        -0.211451
 C         4.321792         2.104336        -0.088513
 O         3.013587         2.093185         0.780680
 C         2.528533         0.806434         0.922265
 O         2.212182         0.251717        -1.170495
 H        -0.529920        -0.363781         0.867177
 H        -0.342501         1.144330         0.182842
 H        -0.485326        -0.270584        -0.908983
 H         2.586196        -1.541137         1.408503
 H         2.285060        -2.151435        -0.257221
 H         5.289489         0.198006         0.579876
 H         5.223856         0.355349        -1.109375
 H         5.087633         2.687032         0.411283
 H         4.067961         2.484437        -1.179866
 H         2.640779         0.325090         1.953249
