19
Iteration:  1262charge 0 multiplicity 1
 C        -0.048481         0.197459        -0.037230
 C         1.501079        -0.021964         0.112918
 C         2.466959        -1.337851         0.321980
 C         3.264701        -0.078855        -0.068492
 C         4.606448         0.485184        -0.172625
 C         4.225922         2.013830        -0.108767
 O         2.988077         2.122128         0.734999
 C         2.572950         0.762944         0.993418
 O         2.162126         0.325324        -1.095331
 H        -0.673912        -0.373726         0.644767
 H        -0.186585         1.282598        -0.023916
 H        -0.306115        -0.163898        -1.034449
 H         2.534294        -1.780801         1.299559
 H         2.442299        -2.129347        -0.400203
 H         5.276559         0.223133         0.695520
 H         5.219146         0.342416        -1.124953
 H         5.021239         2.524213         0.415337
 H         3.942423         2.370706        -1.112386
 H         2.770130         0.351783         1.949537
