19
Iteration:  3752
 C        -0.099149         0.136031         0.105807
 C         1.431096        -0.075724         0.065119
 C         2.354824        -1.288049         0.324953
 C         3.282089        -0.066759        -0.136542
 C         4.659957         0.550558        -0.235528
 C         4.365438         2.087591         0.152712
 O         2.984095         2.087343         0.571369
 C         2.562757         0.853659         0.927176
 O         2.225305         0.219901        -1.161133
 H        -0.498455        -0.318063         0.996888
 H        -0.559589         1.153088         0.197924
 H        -0.688009        -0.420181        -0.691950
 H         2.593193        -1.524256         1.420731
 H         2.190384        -2.178401        -0.376139
 H         5.255407        -0.057000         0.523745
 H         5.079744         0.366428        -1.259669
 H         5.114424         2.453212         0.874702
 H         4.363808         2.763464        -0.650291
 H         2.636981         0.530447         1.978444
