19
Iteration:  1711charge 0 multiplicity 1
 C        -0.014325         0.223066         0.003722
 C         1.415553        -0.109419         0.103490
 C         2.423123        -1.325573         0.229394
 C         3.256291        -0.092485         0.031568
 C         4.623920         0.519488        -0.317840
 C         4.211805         2.090057        -0.032109
 O         2.994210         2.062583         0.760608
 C         2.588642         0.800977         1.032437
 O         2.209764         0.300021        -1.099476
 H        -0.410062         0.194357         1.079733
 H         0.017675         1.270058        -0.465751
 H        -0.566427        -0.501229        -0.649877
 H         2.745394        -1.964223         1.154769
 H         2.492746        -1.961094        -0.689077
 H         5.426520         0.011366         0.310000
 H         4.914481         0.256830        -1.399757
 H         5.068734         2.717544         0.444870
 H         3.921993         2.449583        -1.052637
 H         2.582650         0.503524         2.123110
