19
Iteration:  1120
 C        -0.062319         0.041971        -0.027023
 C         1.491246         0.117786         0.117774
 C         2.152917        -1.226938         0.365446
 C         3.260899        -0.131296        -0.122788
 C         4.670826         0.525745        -0.332242
 C         4.229830         2.022390        -0.066509
 O         3.014234         2.096513         0.807070
 C         2.622658         0.758887         0.973318
 O         2.349111         0.297261        -1.090059
 H        -0.418985        -0.508078         0.880712
 H        -0.516777         1.039270        -0.221670
 H        -0.259010        -0.664816        -0.843585
 H         2.153128        -1.439906         1.423146
 H         1.982260        -2.106874        -0.197025
 H         5.317266         0.134248         0.474668
 H         5.272255         0.403233        -1.315964
 H         5.161982         2.532109         0.385790
 H         3.830112         2.483309        -1.028294
 H         2.797487         0.580400         2.110863
