19
Iteration:  3212
 C        -0.090248        -0.016957         0.056242
 C         1.420312        -0.002472         0.211885
 C         2.327087        -1.250553         0.340631
 C         3.230179        -0.014407        -0.140364
 C         4.676276         0.495333        -0.194818
 C         4.357637         2.043022         0.014349
 O         3.014847         2.155273         0.650475
 C         2.564466         0.762773         0.898483
 O         2.210793         0.326344        -1.147064
 H        -0.670502        -0.244531         0.899910
 H        -0.270374         0.996187        -0.395031
 H        -0.329172        -0.739545        -0.766726
 H         2.572902        -1.680243         1.265617
 H         2.330134        -2.068347        -0.408798
 H         5.046936        -0.002852         0.668572
 H         5.102504         0.216959        -1.194201
 H         5.171790         2.479918         0.693667
 H         4.362845         2.751904        -0.884726
 H         2.762716         0.443071         1.863096
