19
Iteration:  3215charge 0 multiplicity 1
 C        -0.081142         0.000849         0.043556
 C         1.433239        -0.017707         0.222576
 C         2.327253        -1.240358         0.342009
 C         3.229743        -0.014571        -0.127420
 C         4.661183         0.458127        -0.212473
 C         4.316076         2.063303         0.032381
 O         3.008915         2.151474         0.635200
 C         2.576942         0.783221         0.903613
 O         2.219805         0.333688        -1.158851
 H        -0.652959        -0.294197         0.944583
 H        -0.235680         1.002131        -0.417009
 H        -0.354659        -0.710903        -0.756582
 H         2.633768        -1.759287         1.321731
 H         2.343477        -2.035476        -0.462422
 H         5.056303         0.067624         0.730749
 H         5.041534         0.173006        -1.189719
 H         5.195038         2.433745         0.701121
 H         4.379210         2.699961        -0.864849
 H         2.891959         0.327475         1.950831
