19
Iteration:  1148
 C        -0.086613         0.056999        -0.029708
 C         1.473170         0.037389         0.081029
 C         2.394101        -1.328445         0.358082
 C         3.240696        -0.078951         0.018292
 C         4.578812         0.521217        -0.310241
 C         4.317550         1.958770        -0.027560
 O         3.105873         2.144022         0.797015
 C         2.480021         0.857358         0.916036
 O         2.213150         0.336092        -1.114667
 H        -0.588948        -0.100537         0.913019
 H        -0.390414         0.956204        -0.543888
 H        -0.427834        -0.831228        -0.614541
 H         2.482267        -1.825981         1.374785
 H         2.274499        -2.065358        -0.494982
 H         5.459624         0.077232         0.218669
 H         5.034676         0.323688        -1.304299
 H         5.173544         2.315482         0.471305
 H         4.090959         2.539324        -0.917918
 H         2.537366         0.697004         1.949502
