19
Iteration:  2985charge 0 multiplicity 1
 C        -0.031498         0.029431         0.121742
 C         1.456338         0.044302         0.120728
 C         2.263917        -1.183522         0.299855
 C         3.289610        -0.052866        -0.033923
 C         4.621109         0.506780        -0.326441
 C         4.307618         2.017962         0.069611
 O         3.008569         2.099823         0.696147
 C         2.526430         0.769358         0.881669
 O         2.301353         0.263464        -1.175252
 H        -0.319351        -0.210488         1.116972
 H        -0.453460         0.995505        -0.276580
 H        -0.396425        -0.889000        -0.478613
 H         2.351657        -1.693451         1.352702
 H         1.846827        -1.872362        -0.475705
 H         5.619124         0.289827         0.310148
 H         5.002882         0.448916        -1.435849
 H         4.943265         2.347482         0.904572
 H         4.321223         2.581603        -0.834224
 H         2.448042         0.665927         1.913997
