19
Iteration:  2089charge 0 multiplicity 1
 C        -0.001825         0.270532         0.087971
 C         1.483708        -0.052299         0.078316
 C         2.469749        -1.265739         0.299162
 C         3.269908        -0.117032        -0.137846
 C         4.601920         0.598255        -0.168544
 C         4.151817         2.077649        -0.102281
 O         3.003365         1.995197         0.773072
 C         2.547886         0.728586         0.936685
 O         2.186428         0.235606        -1.134365
 H        -0.359001         0.298148         1.171752
 H         0.017580         1.287440        -0.436869
 H        -0.550477        -0.426840        -0.537000
 H         2.791345        -1.702676         1.273552
 H         2.352101        -2.015244        -0.432211
 H         5.188358         0.174749         0.659759
 H         5.374122         0.419362        -0.952772
 H         4.853316         2.649741         0.405693
 H         3.968926         2.480856        -1.201822
 H         2.566204         0.308416         1.942839
