19
Iteration:  3107charge 0 multiplicity 1
 C         0.046458         0.352250         0.038377
 C         1.498538        -0.069802         0.149433
 C         2.447398        -1.366374         0.276483
 C         3.349054        -0.138367        -0.077320
 C         4.599268         0.490298        -0.240791
 C         4.024970         2.040688        -0.136368
 O         2.982929         2.085964         0.735068
 C         2.518303         0.772835         0.942348
 O         2.292337         0.249876        -1.030591
 H        -0.694745         0.031638         0.847617
 H        -0.045622         1.471467        -0.104601
 H        -0.265077        -0.119896        -0.926638
 H         2.539883        -1.883716         1.304368
 H         2.322818        -2.062422        -0.638550
 H         5.230652         0.083179         0.672355
 H         5.308898         0.308852        -1.091846
 H         4.770254         2.732112         0.317537
 H         3.629772         2.465678        -1.035184
 H         2.515684         0.667543         1.996036
