19
Iteration:  3425charge 0 multiplicity 1
 C         0.052504         0.306518         0.063037
 C         1.483638         0.004032         0.066572
 C         2.392416        -1.315221         0.388505
 C         3.295326        -0.187776         0.013671
 C         4.614540         0.582476        -0.272094
 C         4.148077         2.052636         0.020690
 O         2.912090         2.077614         0.653088
 C         2.559643         0.786574         0.902013
 O         2.299491         0.139486        -1.178454
 H        -0.448235        -0.078154         0.966095
 H        -0.120865         1.392102         0.033432
 H        -0.452152        -0.147492        -0.812574
 H         2.302196        -1.775936         1.395637
 H         2.337485        -2.120081        -0.400250
 H         5.417561         0.347505         0.397823
 H         4.844334         0.425870        -1.291730
 H         4.937548         2.425634         0.820706
 H         4.234847         2.773577        -0.793510
 H         2.530080         0.576088         1.930383
