19
Iteration:  4373
 C        -0.070923         0.015798        -0.060074
 C         1.452595        -0.011761         0.044303
 C         2.377353        -1.241441         0.461312
 C         3.288589        -0.078834        -0.008258
 C         4.585066         0.526602        -0.306527
 C         4.258893         1.985750        -0.054524
 O         3.073030         2.133356         0.781444
 C         2.455379         0.830218         0.857354
 O         2.295041         0.314679        -1.074402
 H        -0.473936        -0.038787         0.931105
 H        -0.225347         0.915613        -0.603041
 H        -0.226342        -0.794956        -0.704119
 H         2.470419        -1.551890         1.504523
 H         2.257067        -2.199657        -0.123784
 H         5.345002         0.280547         0.414081
 H         4.863475         0.291271        -1.277724
 H         5.076737         2.594645         0.443272
 H         4.005595         2.492523        -1.005929
 H         2.379707         0.581953         1.943346
