19
Iteration:  4238charge 0 multiplicity 1
 C         0.038943         0.039842        -0.102695
 C         1.472904         0.032679         0.179944
 C         2.452533        -1.303680         0.321899
 C         3.252676        -0.093499        -0.024831
 C         4.559449         0.404903        -0.394875
 C         4.298515         1.933737        -0.004451
 O         2.936185         2.188510         0.640066
 C         2.466426         0.824433         1.065002
 O         2.278565         0.403340        -0.967681
 H        -0.750150        -0.047665         0.678358
 H        -0.310560         0.929674        -0.743951
 H        -0.166007        -0.900455        -0.740125
 H         2.511121        -1.552202         1.436253
 H         2.384838        -2.083757        -0.444675
 H         5.308022        -0.082626         0.087499
 H         4.606386         0.232905        -1.473530
 H         5.071479         2.504908         0.661771
 H         4.397216         2.642979        -0.904086
 H         2.536120         0.883887         2.246399
