19
Iteration:   682
 C         0.024226         0.189348        -0.021032
 C         1.481346        -0.085625         0.042422
 C         2.354040        -1.306679         0.338675
 C         3.204556        -0.035420        -0.004556
 C         4.638618         0.565053        -0.315529
 C         4.376712         2.050348         0.056605
 O         2.996339         2.069134         0.804112
 C         2.449664         0.799832         0.977756
 O         2.247255         0.246398        -1.183772
 H        -0.566537        -0.446014         0.670333
 H        -0.200090         1.281726         0.003186
 H        -0.411954        -0.055857        -1.035721
 H         2.388639        -1.612360         1.362954
 H         2.331026        -2.133897        -0.425128
 H         5.446091        -0.016173         0.143446
 H         4.717580         0.338296        -1.469943
 H         5.061819         2.582476         0.721099
 H         4.087046         2.594039        -0.822848
 H         2.423380         0.348632         2.073340
