19
Iteration:  3466
 C        -0.020772         0.186126         0.062100
 C         1.533895         0.048842         0.104903
 C         2.360356        -1.291025         0.327620
 C         3.322202        -0.165130         0.051234
 C         4.604754         0.523300        -0.293477
 C         4.194979         1.965886         0.081587
 O         2.889927         2.090967         0.509552
 C         2.557500         0.798669         0.911724
 O         2.260476         0.298957        -1.084401
 H        -0.450447         0.050965         1.116413
 H        -0.226733         1.170381        -0.314193
 H        -0.352706        -0.592968        -0.622510
 H         2.531909        -1.860582         1.232169
 H         2.284339        -1.914913        -0.511299
 H         5.527626         0.287256         0.467918
 H         5.015891         0.357762        -1.289379
 H         4.983122         2.277928         0.851377
 H         4.402582         2.682876        -0.700181
 H         2.757644         0.554333         2.046914
