19
Iteration:  4390
 C        -0.078224         0.033614        -0.192641
 C         1.418200        -0.061795         0.086237
 C         2.434628        -1.235544         0.467311
 C         3.189431        -0.022746        -0.037148
 C         4.600529         0.521719        -0.251042
 C         4.221280         2.098146        -0.173073
 O         3.204916         2.096779         0.896111
 C         2.529171         0.856899         1.052254
 O         2.227991         0.189496        -1.195321
 H        -0.648970         0.090130         0.820040
 H        -0.425006         1.022996        -0.623854
 H        -0.649682        -0.761203        -0.829103
 H         2.476083        -1.481346         1.579810
 H         2.476710        -2.114022        -0.111988
 H         5.307178         0.165828         0.549752
 H         5.096401         0.384436        -1.302562
 H         4.965215         2.697817         0.296768
 H         3.796784         2.502514        -1.101976
 H         2.429026         0.678002         2.125870
