19
Iteration:  3785
 C         0.066401         0.274404         0.028385
 C         1.570081        -0.075753         0.125151
 C         2.435350        -1.302855         0.266712
 C         3.286851        -0.143243         0.009223
 C         4.647954         0.459521        -0.370981
 C         4.195710         1.998982         0.116005
 O         2.807419         2.114625         0.520993
 C         2.569691         0.840552         0.986579
 O         2.224948         0.274615        -1.035325
 H        -0.373953        -0.121860         0.951439
 H        -0.109227         1.372550        -0.140361
 H        -0.433077        -0.321395        -0.801340
 H         2.566199        -1.839676         1.302503
 H         2.217971        -2.055968        -0.530839
 H         5.401667         0.051603         0.362769
 H         4.893360         0.347140        -1.458182
 H         4.663845         2.201404         1.127603
 H         4.319827         2.781935        -0.570188
 H         2.589133         0.787610         2.081519
