19
Iteration:  4225charge 0 multiplicity 1
 C         0.008140        -0.019564        -0.127950
 C         1.458160        -0.022948         0.248129
 C         2.396837        -1.267440         0.336003
 C         3.264650        -0.068047        -0.009066
 C         4.645099         0.362025        -0.332746
 C         4.269755         1.960695        -0.048380
 O         2.952998         2.177392         0.666840
 C         2.540377         0.884457         1.021025
 O         2.185548         0.463082        -1.014000
 H        -0.658119         0.095151         0.739662
 H         0.012926         0.928600        -0.816788
 H        -0.197897        -0.947517        -0.787210
 H         2.687285        -1.768214         1.240791
 H         2.270294        -2.010708        -0.534137
 H         5.425208         0.064474         0.309839
 H         5.034570         0.231855        -1.397613
 H         5.074375         2.274046         0.650854
 H         4.092199         2.423476        -0.994220
 H         2.561855         0.574751         2.142651
