19
Iteration:  2190charge 0 multiplicity 1
 C         0.004515        -0.015469         0.044057
 C         1.441045        -0.039973         0.091303
 C         2.441645        -1.282230         0.340355
 C         3.194128        -0.070306        -0.071525
 C         4.584487         0.573556        -0.301889
 C         4.497620         2.032241         0.110808
 O         3.000927         2.126907         0.619404
 C         2.539560         0.898005         0.957152
 O         2.057853         0.236408        -1.144312
 H        -0.482549        -0.320806         0.992020
 H        -0.263358         1.079371         0.003705
 H        -0.324132        -0.343203        -0.940376
 H         2.371446        -1.427840         1.419157
 H         2.320993        -2.190444        -0.314737
 H         5.384607         0.117067         0.314452
 H         4.771504         0.483048        -1.351626
 H         5.129628         2.290827         0.898837
 H         4.647317         2.758647        -0.680882
 H         2.583676         0.641313         2.042787
