19
Iteration:  4688
 C        -0.036118         0.145161        -0.073295
 C         1.427280        -0.080157         0.134018
 C         2.381147        -1.327898         0.307131
 C         3.278711        -0.097820         0.082112
 C         4.733415         0.530374        -0.164888
 C         4.188036         2.039022        -0.217002
 O         3.030652         2.173561         0.705816
 C         2.470288         0.819943         0.962584
 O         2.274574         0.237324        -1.011553
 H        -0.729254        -0.250508         0.677070
 H        -0.214748         1.245542        -0.123351
 H        -0.358241        -0.311935        -1.006332
 H         2.532948        -1.894477         1.209798
 H         2.248404        -1.897495        -0.681867
 H         5.369175         0.507954         0.756871
 H         5.194046         0.177158        -1.099323
 H         5.048603         2.635533         0.029953
 H         3.810388         2.276900        -1.223536
 H         2.426929         0.644961         2.028559
