19
Iteration:  4820charge 0 multiplicity 1
 C         0.007857         0.160212         0.141729
 C         1.522266        -0.026517         0.048930
 C         2.191028        -1.345061         0.314937
 C         3.271648        -0.141695        -0.054183
 C         4.720231         0.574803        -0.106175
 C         4.282095         2.070151         0.005912
 O         2.885277         2.213429         0.555322
 C         2.486392         0.813362         0.881019
 O         2.358357         0.110870        -1.162565
 H        -0.007378        -0.135011         1.158239
 H        -0.265127         1.231622         0.102498
 H        -0.614484        -0.447975        -0.454731
 H         2.350839        -1.835975         1.287166
 H         2.029768        -2.020126        -0.477505
 H         5.312156         0.175951         0.768325
 H         5.276480         0.441008        -1.071799
 H         4.893594         2.708951         0.658474
 H         4.300967         2.701492        -1.004414
 H         2.567295         0.774987         1.986294
