19
Iteration:  2121charge 0 multiplicity 1
 C        -0.027261         0.122554         0.142945
 C         1.482304        -0.024458         0.055103
 C         2.360473        -1.285010         0.299305
 C         3.292362        -0.143369        -0.100480
 C         4.602632         0.500475        -0.294658
 C         4.290153         2.072299         0.021818
 O         2.959096         2.142916         0.737050
 C         2.490508         0.821715         0.936214
 O         2.299644         0.215984        -1.165014
 H        -0.425775         0.050420         1.185814
 H        -0.371353         1.148298        -0.174781
 H        -0.572963        -0.468718        -0.571289
 H         2.553276        -1.688967         1.269218
 H         2.268058        -2.005109        -0.447027
 H         5.355671         0.063372         0.382721
 H         4.881843         0.589276        -1.358731
 H         5.006616         2.494907         0.691105
 H         4.241697         2.839573        -0.859138
 H         2.552213         0.511770         2.037523
