19
Iteration:  3666
 C         0.038288         0.130456        -0.098427
 C         1.511076         0.040333         0.246320
 C         2.387279        -1.238712         0.308999
 C         3.268770        -0.085586        -0.090518
 C         4.548321         0.493739        -0.251872
 C         4.152696         1.951869        -0.103486
 O         3.026524         2.077617         0.680245
 C         2.563932         0.835502         1.013361
 O         2.225844         0.287824        -0.998648
 H        -0.492588         0.122178         0.808422
 H        -0.190249         1.010841        -0.743869
 H        -0.117448        -0.827519        -0.631169
 H         2.429388        -1.876268         1.153673
 H         2.284088        -1.786944        -0.628775
 H         5.174767         0.115181         0.690005
 H         5.048631         0.384089        -1.309832
 H         4.974172         2.417883         0.438895
 H         4.023565         2.421751        -1.075870
 H         2.704053         0.694376         2.142267
