19
Iteration:  3135charge 0 multiplicity 1
 C        -0.022807         0.198615         0.019374
 C         1.502585        -0.024531         0.132762
 C         2.342822        -1.291775         0.291886
 C         3.361130        -0.142475         0.038375
 C         4.627359         0.534066        -0.206880
 C         4.232095         2.034980        -0.139734
 O         2.908326         2.027195         0.684847
 C         2.616819         0.733201         0.956793
 O         2.212225         0.358294        -1.069022
 H        -0.692587         0.038103         0.783636
 H        -0.171112         1.242772        -0.235963
 H        -0.197588        -0.471795        -0.853582
 H         2.305714        -1.673593         1.267383
 H         2.354977        -2.044458        -0.474778
 H         5.328644         0.258705         0.487140
 H         5.012476         0.307144        -1.213109
 H         4.997340         2.691265         0.326415
 H         3.809747         2.567953        -1.050843
 H         2.923384         0.460307         2.038817
