19
Iteration:   323
 C        -0.113741         0.012902         0.066414
 C         1.437371         0.047941         0.101112
 C         2.324042        -1.259730         0.194953
 C         3.297275        -0.075606        -0.113768
 C         4.731264         0.492617        -0.071285
 C         4.240558         1.899932        -0.089392
 O         2.956449         2.095505         0.720360
 C         2.570268         0.788180         0.975521
 O         2.292016         0.462341        -1.135527
 H        -0.460964        -0.534360         0.933122
 H        -0.657041         0.993928         0.188341
 H        -0.480292        -0.367820        -0.883429
 H         2.441581        -1.867438         1.120192
 H         2.167564        -1.763082        -0.710687
 H         5.299002         0.366720         0.804609
 H         5.492210         0.361805        -0.866113
 H         5.003152         2.444028         0.427799
 H         4.127592         2.178453        -1.123887
 H         2.768828         0.447028         2.022912
