19
Iteration:  1112
 C        -0.063113         0.071003        -0.007167
 C         1.456567         0.092508         0.111499
 C         2.206185        -1.316023         0.403090
 C         3.311646        -0.157864        -0.109094
 C         4.688014         0.537716        -0.295734
 C         4.203847         1.990107        -0.101852
 O         3.035886         2.104413         0.797681
 C         2.594901         0.817782         0.953400
 O         2.343157         0.337353        -1.102621
 H        -0.534103        -0.413096         0.871426
 H        -0.606537         1.040025        -0.113616
 H        -0.213321        -0.462162        -0.953634
 H         2.230508        -1.744362         1.462337
 H         1.821524        -2.012697        -0.402124
 H         5.270929         0.256654         0.541357
 H         5.068109         0.439190        -1.238596
 H         5.032164         2.584281         0.337731
 H         3.963335         2.497848        -0.996229
 H         2.656741         0.379079         1.958313
