19
Iteration:   288charge 0 multiplicity 1
 C         0.002512        -0.012809        -0.037915
 C         1.464012        -0.002967         0.002422
 C         2.322302        -1.319052         0.245656
 C         3.221418        -0.089300         0.054427
 C         4.605802         0.510359        -0.317603
 C         4.300032         1.909365        -0.083614
 O         3.037441         2.165618         0.817003
 C         2.478817         0.889644         1.026477
 O         2.300629         0.436915        -1.071500
 H        -0.329717        -0.407782         0.928918
 H        -0.221258         1.036055        -0.326432
 H        -0.391778        -0.820805        -0.658112
 H         2.233196        -1.974713         1.139549
 H         2.105997        -2.063934        -0.564759
 H         5.337494         0.288666         0.494370
 H         4.848087         0.336382        -1.331963
 H         5.143809         2.359094         0.582982
 H         4.171433         2.638970        -0.881511
 H         2.480036         0.408198         2.049358
