19
Iteration:   578
 C         0.065067         0.236814        -0.032364
 C         1.492456        -0.040886         0.049725
 C         2.245747        -1.266262         0.315048
 C         3.293693        -0.126152        -0.069953
 C         4.658311         0.569691        -0.264771
 C         4.105788         2.109448        -0.006089
 O         2.972106         2.006440         0.854378
 C         2.631655         0.689761         0.963212
 O         2.294587         0.281081        -1.154347
 H        -0.345452         0.278580         0.991329
 H        -0.142620         1.262359        -0.396805
 H        -0.517207        -0.475913        -0.643261
 H         2.103961        -1.719117         1.347098
 H         2.517937        -1.845270        -0.593819
 H         5.353348         0.086563         0.480554
 H         4.963071         0.224624        -1.262669
 H         4.863361         2.758263         0.440986
 H         3.808388         2.530254        -1.009318
 H         2.739847         0.278092         2.026049
