19
Iteration:  1531
 C         0.070849         0.200219         0.034986
 C         1.469535        -0.052010         0.144793
 C         2.334432        -1.301395         0.229229
 C         3.248226        -0.086218        -0.105140
 C         4.622250         0.570843        -0.153802
 C         4.187602         2.088490        -0.169841
 O         2.978551         2.012599         0.793855
 C         2.600340         0.693458         1.031664
 O         2.235658         0.309547        -1.139661
 H        -0.509562         0.347808         0.958646
 H        -0.090027         1.189989        -0.447945
 H        -0.518951        -0.447250        -0.644885
 H         2.557476        -1.698219         1.240455
 H         2.184442        -2.008065        -0.517210
 H         5.211745         0.483541         0.739804
 H         5.255603         0.260597        -1.018147
 H         4.968510         2.740629         0.328616
 H         3.816013         2.339039        -1.220917
 H         2.819663         0.324139         2.009108
