19
Iteration:  3234
 C         0.027620         0.117046         0.028721
 C         1.501060         0.042282         0.114027
 C         2.407512        -1.293869         0.276769
 C         3.252642        -0.113212        -0.047327
 C         4.609786         0.475548        -0.285825
 C         4.263743         1.954389         0.025944
 O         2.882142         2.130104         0.593955
 C         2.581721         0.823867         1.026744
 O         2.251579         0.308293        -1.060058
 H        -0.375278        -0.152171         0.963902
 H        -0.276053         1.175241        -0.248168
 H        -0.384886        -0.581712        -0.741126
 H         2.472335        -1.697766         1.248103
 H         2.244896        -2.123721        -0.457456
 H         5.216804        -0.054306         0.454717
 H         4.929549         0.424209        -1.385401
 H         4.935582         2.484162         0.760475
 H         4.273286         2.704152        -0.823010
 H         2.615393         0.787820         2.049737
