19
Iteration:    16
 C         0.024113         0.188442         0.147474
 C         1.513619        -0.054292         0.040949
 C         2.173772        -1.433595         0.264353
 C         3.225890        -0.168087        -0.137580
 C         4.617739         0.631088        -0.144201
 C         4.228712         2.125246        -0.097759
 O         3.003708         2.081817         0.710903
 C         2.512947         0.737271         1.017149
 O         2.383047         0.340539        -1.223608
 H        -0.144696         0.066996         1.273157
 H        -0.287510         1.219419        -0.146971
 H        -0.527572        -0.646281        -0.423394
 H         2.244242        -1.630407         1.382427
 H         1.991833        -2.287295        -0.398188
 H         5.173158         0.371911         0.916327
 H         5.396518         0.355804        -0.854473
 H         5.096140         2.577813         0.437415
 H         4.125052         2.482065        -1.108539
 H         2.706315         0.471951         2.063655
