19
Iteration:   293
 C         0.038083        -0.030658        -0.012460
 C         1.466744        -0.002309         0.009911
 C         2.302445        -1.334243         0.257833
 C         3.220571        -0.075894         0.047049
 C         4.595211         0.456895        -0.268734
 C         4.326381         1.987410        -0.090572
 O         3.031750         2.123567         0.787949
 C         2.455203         0.869798         1.043813
 O         2.301463         0.488025        -1.090938
 H        -0.216744        -0.415609         0.996550
 H        -0.376273         0.971595        -0.237505
 H        -0.437523        -0.730851        -0.752320
 H         2.264754        -2.019754         1.109128
 H         2.276084        -1.857219        -0.702531
 H         5.331041         0.218943         0.479777
 H         4.889861         0.252914        -1.351252
 H         5.071583         2.365428         0.513520
 H         4.211561         2.475145        -1.092059
 H         2.323928         0.565442         2.083084
