19
Iteration:  4570charge 0 multiplicity 1
 C        -0.050102        -0.102923        -0.159589
 C         1.409325         0.028599         0.222892
 C         2.361853        -1.211082         0.489054
 C         3.219353        -0.092484        -0.030642
 C         4.600671         0.532119        -0.452995
 C         4.400308         1.962174         0.165909
 O         2.971464         2.121213         0.483976
 C         2.596598         0.893359         1.018025
 O         2.224015         0.337728        -1.025673
 H        -0.843324         0.024991         0.625971
 H        -0.124630         0.781599        -0.901803
 H        -0.152270        -1.106277        -0.630346
 H         2.600595        -1.505970         1.500339
 H         2.174396        -1.957944        -0.326535
 H         5.396642         0.089664         0.088645
 H         4.731770         0.381572        -1.490328
 H         4.871444         2.139547         1.126534
 H         4.559985         2.860988        -0.474822
 H         2.720737         0.887408         2.150366
