19
Iteration:  3674charge 0 multiplicity 1
 C         0.047761         0.053041        -0.102043
 C         1.456424         0.054587         0.225440
 C         2.386730        -1.283181         0.310968
 C         3.221477        -0.093252        -0.054298
 C         4.621028         0.486787        -0.266380
 C         4.253819         2.003628        -0.067254
 O         3.032262         2.118196         0.630992
 C         2.559770         0.835703         1.073026
 O         2.158021         0.344566        -1.004012
 H        -0.574852         0.085261         0.784667
 H        -0.223504         0.929961        -0.781195
 H        -0.297802        -0.852249        -0.695512
 H         2.542788        -1.950718         1.222102
 H         2.225602        -1.956217        -0.663920
 H         5.355372        -0.097110         0.410852
 H         5.123573         0.287596        -1.209120
 H         4.997644         2.642353         0.425873
 H         4.155619         2.311469        -1.076052
 H         2.606103         0.568003         2.160008
