19
Iteration:  3554charge 0 multiplicity 1
 C        -0.071385         0.029359        -0.037556
 C         1.427076         0.000381         0.055989
 C         2.353894        -1.294343         0.318459
 C         3.269036        -0.096576         0.036450
 C         4.581541         0.463036        -0.283586
 C         4.270437         1.973502        -0.064591
 O         3.020328         2.168674         0.625092
 C         2.578809         0.869786         1.028661
 O         2.289854         0.358311        -1.003900
 H        -0.513075        -0.235680         0.946726
 H        -0.467074         1.045902        -0.221011
 H        -0.562983        -0.564334        -0.828318
 H         2.459515        -1.784222         1.288658
 H         2.402607        -2.060469        -0.472662
 H         5.474059         0.004513         0.408488
 H         4.900814         0.233791        -1.321732
 H         5.035527         2.524905         0.510645
 H         4.120306         2.414572        -1.026584
 H         2.797343         0.706542         2.167454
