19
Iteration:  1388charge 0 multiplicity 1
 C        -0.095675         0.227264         0.107883
 C         1.459444        -0.056414         0.048715
 C         2.424544        -1.374492         0.223350
 C         3.351067        -0.212281        -0.067405
 C         4.636218         0.528535        -0.275470
 C         4.191838         1.996637         0.034358
 O         2.904697         2.122691         0.639486
 C         2.527629         0.814367         1.036052
 O         2.348679         0.323432        -1.099305
 H        -0.349290         0.256775         1.203399
 H        -0.173250         1.300852        -0.239468
 H        -0.625293        -0.490948        -0.550574
 H         2.531490        -1.790389         1.242273
 H         2.124018        -1.985041        -0.583314
 H         5.421815         0.124569         0.288235
 H         4.926349         0.474503        -1.368642
 H         4.939854         2.510284         0.735374
 H         4.268493         2.780173        -0.801432
 H         2.463820         0.644809         2.172359
