19
Iteration:  3806charge 0 multiplicity 1
 C         0.047806         0.247503         0.042915
 C         1.546150        -0.038171         0.152840
 C         2.288436        -1.341656         0.378624
 C         3.276206        -0.131896        -0.007723
 C         4.582782         0.616805        -0.383172
 C         4.251830         2.051082         0.099499
 O         2.863251         2.100859         0.593719
 C         2.525386         0.750162         0.963912
 O         2.382755         0.208816        -1.129592
 H        -0.583472         0.154821         0.938022
 H        -0.075952         1.318160        -0.323823
 H        -0.421754        -0.430212        -0.746335
 H         2.316493        -1.946587         1.368082
 H         2.219975        -2.053580        -0.490168
 H         5.432601         0.174305         0.141826
 H         4.570310         0.546564        -1.434863
 H         5.054679         2.311606         0.914485
 H         4.200998         2.739361        -0.717353
 H         2.650724         0.433794         1.994326
