19
Iteration:  1552charge 0 multiplicity 1
 C         0.048007         0.327739         0.012784
 C         1.462157        -0.025833         0.107872
 C         2.584018        -1.392425         0.251222
 C         3.282427        -0.114523        -0.078968
 C         4.564815         0.519021        -0.261412
 C         4.074659         1.986828        -0.055416
 O         3.004038         2.109286         0.848442
 C         2.505169         0.760981         0.937053
 O         2.227768         0.259154        -1.102054
 H        -0.490043         0.420399         0.970378
 H        -0.142680         1.348658        -0.369710
 H        -0.613570        -0.298020        -0.613824
 H         2.793491        -1.875325         1.240501
 H         2.464353        -2.008760        -0.577153
 H         5.225491         0.064144         0.541652
 H         5.204976         0.356472        -1.206681
 H         4.995053         2.571718         0.266601
 H         3.613761         2.263986        -1.093018
 H         2.507508         0.568948         1.982115
