19
Iteration:  2406
 C         0.018811         0.146867         0.168265
 C         1.517342         0.019846         0.012935
 C         2.357313        -1.281957         0.288072
 C         3.324025        -0.130947         0.042351
 C         4.638560         0.556713        -0.256207
 C         4.219114         2.004762        -0.010139
 O         2.957727         2.103333         0.652162
 C         2.504658         0.759698         0.923340
 O         2.246500         0.258785        -1.168107
 H        -0.264413        -0.051987         1.241447
 H        -0.148939         1.239475         0.089494
 H        -0.594811        -0.365473        -0.507893
 H         2.231030        -1.807864         1.291973
 H         2.231090        -1.995755        -0.638067
 H         5.479348         0.314696         0.435849
 H         4.790024         0.394108        -1.311256
 H         4.755131         2.639461         0.706506
 H         4.281431         2.453378        -1.070463
 H         2.538299         0.535326         2.023040
