19
Iteration:  4444
 C         0.023464         0.142175        -0.094439
 C         1.513389         0.036183         0.090396
 C         2.333772        -1.242351         0.340445
 C         3.293802        -0.104553         0.105762
 C         4.607508         0.483784        -0.250080
 C         4.102947         1.939045        -0.242501
 O         2.912621         2.048942         0.738240
 C         2.550819         0.768440         0.995411
 O         2.399040         0.367953        -1.018871
 H        -0.347458        -0.099512         0.923184
 H        -0.282013         1.168206        -0.365874
 H        -0.356428        -0.549691        -0.882940
 H         2.347527        -1.540626         1.440878
 H         2.462568        -2.131440        -0.206498
 H         5.452801         0.386665         0.515436
 H         4.999586         0.360796        -1.356916
 H         4.797444         2.598667         0.216911
 H         3.703623         2.432282        -1.131072
 H         2.651718         0.483203         2.037015
