19
Iteration:  3973charge 0 multiplicity 1
 C         0.064865         0.269638        -0.032620
 C         1.513910        -0.014388         0.066671
 C         2.327208        -1.322274         0.385462
 C         3.357429        -0.116069        -0.036810
 C         4.584546         0.575204        -0.331803
 C         4.175439         2.060327         0.043425
 O         2.861837         2.080204         0.734382
 C         2.592247         0.767969         0.989994
 O         2.324692         0.147426        -1.153885
 H        -0.456812        -0.069835         0.907369
 H        -0.043436         1.356167        -0.152004
 H        -0.393439        -0.181848        -0.900653
 H         2.438231        -1.764436         1.412012
 H         2.143098        -2.200174        -0.269303
 H         5.353955         0.236238         0.305711
 H         4.813892         0.499815        -1.438400
 H         4.918825         2.580383         0.660308
 H         3.869366         2.704760        -0.832995
 H         2.508587         0.596173         2.042228
