19
Iteration:  1957charge 0 multiplicity 1
 C         0.010707         0.026670         0.192459
 C         1.440173        -0.094252         0.091468
 C         2.324050        -1.255695         0.283318
 C         3.258017        -0.010711        -0.035513
 C         4.656965         0.472178        -0.333418
 C         4.348712         1.909066         0.086553
 O         2.874032         2.145319         0.654826
 C         2.548962         0.833959         0.927671
 O         2.302864         0.420456        -1.210009
 H        -0.382527        -0.119632         1.231797
 H        -0.330144         1.075898         0.023705
 H        -0.545320        -0.598496        -0.623801
 H         2.495271        -1.793696         1.313272
 H         2.340374        -2.120214        -0.528520
 H         5.373955         0.095795         0.447868
 H         4.764489         0.366695        -1.447625
 H         5.076083         2.272346         0.722393
 H         4.350041         2.713984        -0.729168
 H         2.497296         0.538869         1.950186
