19
Iteration:  3478charge 0 multiplicity 1
 C         0.034680         0.142933         0.025221
 C         1.458820         0.052819         0.149789
 C         2.452629        -1.273464         0.286170
 C         3.246261        -0.039332        -0.052962
 C         4.546309         0.527499        -0.222323
 C         4.365001         1.996250         0.068484
 O         2.946843         2.100096         0.552445
 C         2.530389         0.820391         0.974906
 O         2.209232         0.202236        -1.113723
 H        -0.360952         0.011347         1.073583
 H        -0.429462         1.043046        -0.360947
 H        -0.409374        -0.702908        -0.516575
 H         2.527623        -1.794873         1.218798
 H         2.209143        -1.888524        -0.560238
 H         5.198475        -0.130088         0.523487
 H         4.829747         0.370164        -1.254305
 H         5.018317         2.438221         0.899443
 H         4.379615         2.498636        -0.883822
 H         2.452749         0.646722         2.117869
