19
Iteration:  4135charge 0 multiplicity 1
 C         0.033401         0.293248        -0.003930
 C         1.468560        -0.082116         0.166295
 C         2.356661        -1.324642         0.274927
 C         3.292861        -0.136932        -0.015460
 C         4.716717         0.599870        -0.216848
 C         4.120165         2.079556        -0.107056
 O         2.885160         2.027273         0.632537
 C         2.571802         0.700874         0.940255
 O         2.298621         0.275807        -0.996996
 H        -0.611677        -0.055594         0.868467
 H         0.028703         1.420326         0.008822
 H        -0.387847        -0.071908        -0.961713
 H         2.482365        -1.869743         1.210004
 H         2.267737        -2.076652        -0.538191
 H         5.297021         0.280235         0.681840
 H         5.231784         0.494107        -1.177992
 H         4.931953         2.633851         0.414715
 H         3.982881         2.385400        -1.155046
 H         2.634051         0.498532         2.059414
