19
Iteration:  2388charge 0 multiplicity 1
 C        -0.033078         0.192188         0.080308
 C         1.459321        -0.052946         0.197875
 C         2.381658        -1.311160         0.283062
 C         3.226298        -0.125800        -0.096448
 C         4.665637         0.478291        -0.279820
 C         4.231993         2.047614        -0.084360
 O         2.915977         2.092755         0.659509
 C         2.578690         0.800178         0.991994
 O         2.331148         0.352754        -1.080774
 H        -0.484575        -0.391978         0.868114
 H        -0.297479         1.223505        -0.007079
 H        -0.380702        -0.466362        -0.785196
 H         2.530323        -1.722559         1.235408
 H         2.281439        -2.114487        -0.451016
 H         5.145158         0.080671         0.628156
 H         5.144125         0.244873        -1.234660
 H         5.050459         2.636040         0.429204
 H         3.861469         2.586397        -1.042707
 H         2.592886         0.511012         2.023214
