19
Iteration:  1946charge 0 multiplicity 1
 C        -0.061563         0.097972         0.186302
 C         1.467262         0.045260         0.098147
 C         2.472887        -1.260251         0.254920
 C         3.277852        -0.071215        -0.041731
 C         4.595688         0.482678        -0.341720
 C         4.367651         1.990823         0.101508
 O         2.862828         2.060597         0.585455
 C         2.456678         0.768650         0.927239
 O         2.321766         0.380553        -1.109565
 H        -0.296699        -0.099758         1.255783
 H        -0.391327         1.103387        -0.143550
 H        -0.625323        -0.732447        -0.398595
 H         2.441665        -1.824451         1.252481
 H         2.267798        -1.854892        -0.718065
 H         5.415535        -0.068417         0.193149
 H         4.934962         0.251992        -1.382866
 H         4.969077         2.237800         0.917223
 H         4.338402         2.733574        -0.749909
 H         2.595897         0.605059         1.973364
