19
Iteration:  1036charge 0 multiplicity 1
 C         0.031456         0.230140        -0.001942
 C         1.471087         0.052613         0.087414
 C         2.150872        -1.286675         0.345481
 C         3.332136        -0.149197        -0.026063
 C         4.733000         0.616958        -0.251446
 C         4.164158         2.058942        -0.087922
 O         2.928032         2.022232         0.742418
 C         2.618449         0.702515         1.015323
 O         2.319640         0.228283        -1.180268
 H        -0.206981        -0.004590         1.072863
 H        -0.277124         1.290224        -0.121985
 H        -0.604341        -0.416929        -0.628883
 H         2.268372        -1.826269         1.396475
 H         2.092530        -1.970090        -0.553349
 H         5.439340         0.246819         0.601333
 H         5.246075         0.467614        -1.164878
 H         5.040543         2.523107         0.335839
 H         3.824626         2.588536        -0.919865
 H         2.722919         0.437278         2.049348
