19
Iteration:  3493
 C        -0.104972         0.032495         0.072832
 C         1.420081        -0.090445         0.118097
 C         2.380998        -1.284068         0.351278
 C         3.207801        -0.047853        -0.103289
 C         4.691880         0.436403        -0.251356
 C         4.398811         2.038222         0.078202
 O         3.022591         2.203535         0.670231
 C         2.479734         0.908069         0.907559
 O         2.182771         0.266271        -1.175349
 H        -0.598965         0.046542         1.003389
 H        -0.150807         1.017938        -0.460776
 H        -0.492901        -0.755841        -0.604455
 H         2.646159        -1.612554         1.387850
 H         2.404326        -2.185958        -0.359782
 H         5.265358         0.063770         0.475047
 H         5.195149         0.290687        -1.225831
 H         5.179804         2.465044         0.765079
 H         4.452484         2.708422        -0.825627
 H         2.636593         0.586926         1.877798
