19
Iteration:  3374
 C        -0.079256         0.036714        -0.019739
 C         1.423694         0.031261         0.086893
 C         2.332179        -1.233655         0.337802
 C         3.254979        -0.148619        -0.005398
 C         4.620250         0.489568        -0.224852
 C         4.203020         2.072192        -0.153667
 O         3.074659         2.099811         0.748802
 C         2.565651         0.767375         0.984939
 O         2.341260         0.366634        -1.102224
 H        -0.582446        -0.222070         0.860188
 H        -0.488975         1.035035        -0.348473
 H        -0.350701        -0.712639        -0.799488
 H         2.451043        -1.641667         1.319201
 H         2.114173        -2.165549        -0.300672
 H         5.042406         0.325798         0.762555
 H         5.266131         0.069110        -1.087929
 H         4.998987         2.599143         0.219937
 H         4.016423         2.577372        -1.128082
 H         2.560796         0.551479         2.121619
