19
Iteration:  3236charge 0 multiplicity 1
 C         0.028422         0.125017         0.033917
 C         1.506549         0.054800         0.106734
 C         2.394168        -1.304115         0.272207
 C         3.265554        -0.111437        -0.041585
 C         4.625780         0.494586        -0.292783
 C         4.267828         1.948543         0.015295
 O         2.874106         2.128432         0.590642
 C         2.560852         0.811945         1.021545
 O         2.255032         0.306271        -1.047201
 H        -0.385370        -0.174077         0.992154
 H        -0.233713         1.177628        -0.262138
 H        -0.385839        -0.553071        -0.738599
 H         2.489193        -1.723212         1.316323
 H         2.289035        -2.150863        -0.458805
 H         5.196343        -0.064051         0.424879
 H         4.870774         0.450287        -1.368976
 H         4.984007         2.478804         0.765827
 H         4.290143         2.676893        -0.815025
 H         2.549403         0.747874         2.097321
