19
Iteration:  4596charge 0 multiplicity 1
 C        -0.005103         0.038107        -0.055016
 C         1.439842        -0.009338         0.104453
 C         2.395636        -1.258212         0.511036
 C         3.232297        -0.077779        -0.091076
 C         4.605345         0.548094        -0.377924
 C         4.364820         1.978539         0.195169
 O         2.979739         2.215472         0.614639
 C         2.493042         0.853745         0.916396
 O         2.199526         0.187746        -1.165074
 H        -0.546478         0.148541         0.851514
 H        -0.190074         0.852190        -0.696897
 H        -0.229456        -0.929478        -0.474022
 H         2.592206        -1.354918         1.622396
 H         2.296461        -2.118793        -0.089717
 H         5.440368         0.024012         0.200939
 H         4.894127         0.341839        -1.483581
 H         4.937510         2.373936         1.107466
 H         4.466733         2.689711        -0.654636
 H         2.675823         0.697669         2.014471
