19
Iteration:  3037charge 0 multiplicity 1
 C        -0.055567         0.093455        -0.036397
 C         1.419551         0.039135         0.134059
 C         2.449634        -1.275927         0.255481
 C         3.209732         0.000749        -0.032620
 C         4.643626         0.469302        -0.281502
 C         4.244663         1.981618        -0.082778
 O         3.062225         2.081161         0.732468
 C         2.557816         0.797337         1.038153
 O         2.191319         0.294291        -1.051746
 H        -0.508056         0.032152         0.929474
 H        -0.310708         1.087669        -0.437935
 H        -0.381639        -0.724408        -0.757439
 H         2.547123        -1.716871         1.278481
 H         2.518855        -1.952413        -0.562002
 H         5.230990         0.153422         0.485629
 H         5.220382         0.286883        -1.164516
 H         4.943951         2.690927         0.387595
 H         3.943385         2.341373        -1.115383
 H         2.626246         0.579283         2.170997
