19
Iteration:  3461charge 0 multiplicity 1
 C        -0.008564         0.189236         0.090296
 C         1.495326         0.017098         0.099181
 C         2.328913        -1.319807         0.342085
 C         3.326829        -0.182603         0.049986
 C         4.677028         0.487090        -0.303979
 C         4.203402         2.005980         0.066197
 O         2.859107         2.093522         0.512409
 C         2.567278         0.787834         0.929769
 O         2.295115         0.332591        -1.090469
 H        -0.501747         0.087623         1.024774
 H        -0.180831         1.226668        -0.309840
 H        -0.421126        -0.501410        -0.675957
 H         2.445318        -1.790620         1.363464
 H         2.271468        -2.042036        -0.546384
 H         5.491830         0.323665         0.291597
 H         5.057328         0.385568        -1.346427
 H         4.779959         2.255402         0.939028
 H         4.274765         2.809241        -0.714325
 H         2.751185         0.659686         1.970483
