19
Iteration:  1526charge 0 multiplicity 1
 C         0.038421         0.167714         0.033313
 C         1.461425        -0.034737         0.145550
 C         2.290023        -1.292745         0.243685
 C         3.309189        -0.121013        -0.058985
 C         4.651774         0.587855        -0.166595
 C         4.170695         2.082497        -0.153863
 O         2.972641         2.012096         0.782497
 C         2.620623         0.693835         0.952089
 O         2.244042         0.342320        -1.127289
 H        -0.573496         0.310846         0.935633
 H        -0.169077         1.177811        -0.355275
 H        -0.555713        -0.495596        -0.585992
 H         2.521889        -1.689116         1.242735
 H         2.054901        -2.054855        -0.605439
 H         5.365942         0.403989         0.740856
 H         5.331200         0.220396        -0.985676
 H         4.960029         2.674010         0.271039
 H         3.754553         2.429306        -1.087241
 H         2.859162         0.400407         2.039738
