19
Iteration:   700charge 0 multiplicity 1
 C        -0.030882         0.259655        -0.099141
 C         1.419001        -0.062850         0.089650
 C         2.445571        -1.387550         0.321261
 C         3.275831        -0.115660        -0.066209
 C         4.540998         0.545046        -0.365915
 C         4.227936         2.024059         0.116178
 O         3.015101         2.208769         0.784170
 C         2.553783         0.760044         0.921858
 O         2.248273         0.183607        -1.079265
 H        -0.639265        -0.246300         0.673445
 H        -0.055542         1.322135         0.217777
 H        -0.446726         0.095178        -1.095176
 H         2.521262        -1.873345         1.358441
 H         2.395001        -2.039263        -0.554880
 H         5.364196         0.242221         0.344761
 H         4.995468         0.587214        -1.290907
 H         5.053364         2.168348         0.829544
 H         4.431270         2.712662        -0.707139
 H         2.498935         0.528667         1.969304
