19
Iteration:  4419charge 0 multiplicity 1
 C        -0.026834         0.065078        -0.196547
 C         1.461932         0.029874         0.193490
 C         2.266297        -1.309181         0.391601
 C         3.276489        -0.146338        -0.017823
 C         4.646560         0.536883        -0.228552
 C         4.072662         2.084805        -0.220636
 O         3.203967         2.141726         0.901056
 C         2.555046         0.843603         0.982735
 O         2.275094         0.200937        -1.105159
 H        -0.607443        -0.032053         0.682191
 H        -0.245167         1.019993        -0.698612
 H        -0.188630        -0.707257        -0.897528
 H         2.273599        -1.749262         1.397931
 H         2.198613        -2.182969        -0.330032
 H         5.424741         0.447317         0.578568
 H         5.129062         0.566083        -1.250622
 H         4.815790         2.899538         0.056612
 H         3.533305         2.389023        -1.141525
 H         2.506348         0.659335         2.063676
