19
Iteration:  3838charge 0 multiplicity 1
 C        -0.065621         0.151710        -0.011434
 C         1.498334        -0.030984         0.037009
 C         2.406852        -1.256142         0.410984
 C         3.232363        -0.062993        -0.096225
 C         4.626321         0.532990        -0.317859
 C         4.304965         2.057560         0.004931
 O         3.004244         2.127994         0.824405
 C         2.527852         0.774352         0.987861
 O         2.210388         0.184997        -1.208055
 H        -0.440844         0.099177         1.017318
 H        -0.240736         1.126268        -0.589681
 H        -0.563580        -0.665855        -0.671406
 H         2.515590        -1.518900         1.532806
 H         2.348625        -2.140925        -0.313888
 H         5.247096         0.001968         0.401325
 H         5.143219         0.286816        -1.174689
 H         5.076910         2.751589         0.593256
 H         4.032456         2.720292        -0.814823
 H         2.595294         0.384258         2.007776
