19
Iteration:  4242charge 0 multiplicity 1
 C         0.019371         0.049950        -0.111181
 C         1.464007         0.045337         0.152556
 C         2.460663        -1.317727         0.341029
 C         3.256842        -0.067903        -0.000967
 C         4.519034         0.452839        -0.400359
 C         4.317731         1.942347        -0.006032
 O         2.949828         2.159223         0.629272
 C         2.479415         0.815571         1.069063
 O         2.302418         0.374178        -0.973066
 H        -0.652008        -0.075802         0.742669
 H        -0.340557         0.867264        -0.643268
 H        -0.190501        -0.792563        -0.704676
 H         2.441460        -1.551040         1.422002
 H         2.246661        -2.056382        -0.424883
 H         5.370737        -0.197225         0.077682
 H         4.603859         0.314379        -1.463487
 H         4.960991         2.413377         0.753785
 H         4.297185         2.670298        -0.863343
 H         2.546015         0.886050         2.115186
