19
Iteration:   875charge 0 multiplicity 1
 C         0.055147         0.305379        -0.055737
 C         1.429730         0.041302         0.147214
 C         2.317139        -1.353513         0.331260
 C         3.326123        -0.180400        -0.057768
 C         4.743904         0.596345        -0.263667
 C         4.166436         2.007782        -0.117797
 O         2.889579         2.049836         0.821134
 C         2.568504         0.698884         0.950216
 O         2.295073         0.295667        -1.069560
 H        -0.523684        -0.260810         0.646919
 H        -0.086415         1.390478        -0.049055
 H        -0.084498        -0.053768        -1.062934
 H         2.298864        -1.901615         1.259964
 H         2.131191        -2.115325        -0.510326
 H         5.401091         0.187843         0.538507
 H         5.149107         0.373331        -1.208084
 H         4.742462         2.887413         0.290681
 H         3.716600         2.274535        -1.126274
 H         2.540560         0.350874         2.033848
