19
Iteration:  1525
 C         0.022180         0.165389         0.033331
 C         1.464140        -0.028940         0.145105
 C         2.282754        -1.293284         0.247730
 C         3.324013        -0.129762        -0.049688
 C         4.665190         0.589523        -0.171918
 C         4.163666         2.076357        -0.148966
 O         2.972952         2.015393         0.778903
 C         2.624035         0.694045         0.934560
 O         2.246843         0.350112        -1.122304
 H        -0.568621         0.279592         0.946972
 H        -0.168689         1.168781        -0.342313
 H        -0.557485        -0.531551        -0.583723
 H         2.493671        -1.698064         1.230775
 H         2.036654        -2.056455        -0.607886
 H         5.356351         0.381839         0.711358
 H         5.313995         0.239027        -0.957091
 H         4.942966         2.667602         0.249881
 H         3.757875         2.453938        -1.035907
 H         2.847685         0.416567         2.036315
