19
Iteration:  4992
 C         0.047029         0.257106        -0.001699
 C         1.572475         0.014076         0.072048
 C         2.438058        -1.318807         0.384975
 C         3.314252        -0.231035         0.052094
 C         4.648725         0.495157        -0.220902
 C         4.142819         2.019544        -0.071185
 O         2.756182         2.058449         0.590725
 C         2.493741         0.784772         0.961948
 O         2.362801         0.362113        -1.095643
 H        -0.287848         0.030351         1.047290
 H        -0.140187         1.388181        -0.099768
 H        -0.469553        -0.355879        -0.765868
 H         2.473783        -1.658829         1.446096
 H         2.359680        -2.111045        -0.316725
 H         5.451101         0.122214         0.434001
 H         4.843498         0.217317        -1.286995
 H         4.927143         2.534347         0.512341
 H         4.047047         2.350763        -1.018726
 H         2.525807         0.555692         2.030750
