19
Iteration:  4695
 C         0.000861         0.131938        -0.099936
 C         1.453951        -0.049386         0.104055
 C         2.330736        -1.298257         0.338477
 C         3.259118        -0.055015         0.088821
 C         4.628327         0.517592        -0.201717
 C         4.173296         2.029265        -0.240253
 O         3.085170         2.143070         0.750607
 C         2.451233         0.805051         0.988146
 O         2.291024         0.213140        -1.025148
 H        -0.550247        -0.328457         0.705670
 H        -0.187383         1.144469        -0.203711
 H        -0.260535        -0.340105        -1.038642
 H         2.499509        -1.847737         1.276720
 H         2.499769        -1.895173        -0.565298
 H         5.473926         0.399433         0.560373
 H         5.353702         0.310672        -1.030447
 H         5.024300         2.796286         0.035164
 H         3.646185         2.349122        -1.132402
 H         2.433183         0.786653         2.097558
