19
Iteration:  1700charge 0 multiplicity 1
 C        -0.044957         0.142479         0.012976
 C         1.452744        -0.108488         0.025177
 C         2.384361        -1.287571         0.276641
 C         3.288002        -0.076831        -0.064124
 C         4.625962         0.546674        -0.311061
 C         4.209813         1.958927        -0.065062
 O         2.999903         2.129343         0.778288
 C         2.578951         0.747471         1.009907
 O         2.282415         0.339477        -1.066651
 H        -0.355171         0.073945         1.122359
 H        -0.324907         1.233879        -0.193547
 H        -0.819558        -0.482118        -0.482534
 H         2.304947        -1.731922         1.355894
 H         2.141668        -2.040241        -0.520363
 H         5.396144         0.235200         0.466531
 H         4.989390         0.484712        -1.398001
 H         5.047020         2.557114         0.492701
 H         3.994324         2.612505        -0.929180
 H         2.697003         0.533621         2.120406
