19
Iteration:  2258
 C        -0.039455         0.222226         0.114597
 C         1.475519        -0.012246         0.167637
 C         2.428726        -1.360255         0.218876
 C         3.377712        -0.124553        -0.001520
 C         4.678916         0.557777        -0.276587
 C         4.277302         1.974944         0.011976
 O         2.842405         2.083071         0.568502
 C         2.547448         0.775633         0.903874
 O         2.185673         0.325936        -1.069247
 H        -0.267616         0.364014         1.176722
 H        -0.302901         1.183294        -0.334047
 H        -0.688073        -0.560478        -0.461827
 H         2.595060        -1.676088         1.318294
 H         2.363316        -2.190860        -0.608080
 H         5.345842         0.071318         0.475998
 H         5.188348         0.325536        -1.231817
 H         4.957828         2.333805         0.761598
 H         4.314912         2.631472        -0.772282
 H         2.605381         0.623037         2.049487
