19
Iteration:  4539charge 0 multiplicity 1
 C        -0.050726        -0.071444         0.008557
 C         1.444971        -0.040712         0.051312
 C         2.342992        -1.255021         0.388699
 C         3.200322        -0.095862         0.098426
 C         4.578294         0.503668        -0.338358
 C         4.430672         2.040390         0.156123
 O         2.975351         2.206133         0.529311
 C         2.534635         0.954989         0.908910
 O         2.282045         0.218694        -1.105156
 H        -0.434731        -0.116503         1.012199
 H        -0.416120         0.921869        -0.371018
 H        -0.585402        -0.770540        -0.621552
 H         2.439758        -1.838294         1.319507
 H         2.362475        -1.940961        -0.486031
 H         5.396764         0.044528         0.165276
 H         4.526157         0.365077        -1.446376
 H         5.075567         2.396508         1.063991
 H         4.703110         2.762769        -0.701144
 H         2.562342         0.999909         2.024809
