19
Iteration:  3060charge 0 multiplicity 1
 C        -0.012197         0.120441         0.047323
 C         1.483418         0.055632         0.106324
 C         2.258022        -1.305414         0.329665
 C         3.311033        -0.214567        -0.018733
 C         4.599502         0.547673        -0.247400
 C         4.148494         2.051575        -0.160402
 O         3.033420         2.127515         0.833526
 C         2.562266         0.724485         0.897265
 O         2.366162         0.298062        -1.133938
 H        -0.430400        -0.055875         1.005388
 H        -0.192590         1.232230        -0.122763
 H        -0.484623        -0.477189        -0.820243
 H         2.266353        -1.724956         1.397190
 H         2.092915        -2.033735        -0.491199
 H         5.405670         0.431500         0.420634
 H         5.145025         0.390866        -1.207896
 H         4.864381         2.773979         0.281704
 H         3.694808         2.475977        -1.077340
 H         2.567908         0.469156         2.010812
