19
Iteration:  4987charge 0 multiplicity 1
 C         0.055510         0.282910         0.003536
 C         1.527628        -0.007901         0.094231
 C         2.401633        -1.331519         0.340851
 C         3.326173        -0.180910         0.058770
 C         4.656068         0.539955        -0.190238
 C         4.164400         2.014397        -0.104166
 O         2.791486         2.047570         0.575093
 C         2.479262         0.768734         0.991824
 O         2.357255         0.329310        -1.097503
 H        -0.169687         0.032773         1.063201
 H        -0.222798         1.312454        -0.094952
 H        -0.532614        -0.366688        -0.685898
 H         2.431094        -1.763465         1.347882
 H         2.370768        -2.283612        -0.280798
 H         5.366416         0.181503         0.563725
 H         4.989292         0.336967        -1.200680
 H         4.858669         2.640981         0.477190
 H         4.210011         2.517634        -1.191359
 H         2.510170         0.385166         2.052860
