19
Iteration:  1748
 C        -0.001515         0.269588        -0.027093
 C         1.535633        -0.041931         0.133955
 C         2.306676        -1.349738         0.332039
 C         3.294445        -0.081663        -0.127494
 C         4.627027         0.489499        -0.343241
 C         4.115402         2.095301        -0.058241
 O         2.942112         2.010503         0.792734
 C         2.648846         0.684010         1.013479
 O         2.289814         0.326817        -1.067154
 H        -0.567179         0.237520         0.902760
 H        -0.086255         1.311858        -0.293603
 H        -0.591809        -0.337338        -0.754230
 H         2.635098        -1.750003         1.327043
 H         2.334008        -2.135911        -0.423508
 H         5.337797         0.222666         0.468326
 H         5.069652         0.513569        -1.344446
 H         4.708556         2.848960         0.375969
 H         3.835391         2.517219        -1.015046
 H         2.818492         0.438605         2.105543
