19
Iteration:  4255
 C        -0.060318         0.052283        -0.088951
 C         1.459058         0.017091         0.108080
 C         2.343629        -1.266251         0.432398
 C         3.251078        -0.081266         0.086224
 C         4.568331         0.564464        -0.397528
 C         4.301067         2.010741         0.053084
 O         2.984674         2.060295         0.613533
 C         2.563891         0.860731         0.993297
 O         2.298935         0.289725        -1.074017
 H        -0.425841        -0.087775         0.912854
 H        -0.316058         1.062050        -0.403067
 H        -0.395497        -0.707048        -0.769677
 H         2.500635        -1.826858         1.313937
 H         2.271767        -2.003893        -0.422465
 H         5.560258         0.244586         0.131671
 H         4.639577         0.479604        -1.526498
 H         5.104138         2.221419         0.721464
 H         4.385005         2.690522        -0.757266
 H         2.538358         0.487974         1.964999
