19
Iteration:  1419
 C         0.033882         0.125429         0.060765
 C         1.522408         0.002976         0.054550
 C         2.343599        -1.300399         0.313484
 C         3.236044        -0.123422        -0.080820
 C         4.608403         0.526373        -0.297852
 C         4.392278         2.014516         0.024096
 O         2.875928         2.138059         0.693492
 C         2.493437         0.762893         0.969282
 O         2.272375         0.296630        -1.101532
 H        -0.220308        -0.408985         0.996014
 H        -0.133197         1.208395         0.073902
 H        -0.438648        -0.323067        -0.813116
 H         2.480359        -1.684319         1.300042
 H         2.016118        -2.012173        -0.457515
 H         5.389058         0.006092         0.304842
 H         4.727226         0.524382        -1.391792
 H         4.982461         2.443476         0.893086
 H         4.231453         2.657624        -0.880152
 H         2.552860         0.585780         2.013352
