19
Iteration:  4664
 C        -0.016680         0.198241         0.053943
 C         1.503321         0.015371         0.110920
 C         2.389316        -1.292402         0.327888
 C         3.249636        -0.112143        -0.036068
 C         4.660094         0.469835        -0.060835
 C         4.189311         2.023424        -0.083994
 O         2.848921         2.042654         0.482789
 C         2.583630         0.762917         0.973670
 O         2.314055         0.336442        -1.085869
 H        -0.525345        -0.249860         0.889664
 H        -0.317923         1.195952        -0.002530
 H        -0.378691        -0.349595        -0.785620
 H         2.602632        -1.634541         1.325337
 H         2.474885        -2.034073        -0.506032
 H         5.162899         0.325143         0.980332
 H         5.374924         0.407295        -0.909940
 H         5.062443         2.638230         0.323787
 H         3.983895         2.304266        -1.104017
 H         2.765851         0.599078         2.039721
