19
Iteration:  1046charge 0 multiplicity 1
 C         0.023556         0.294897         0.065335
 C         1.525525         0.049355         0.065390
 C         2.266528        -1.275794         0.270131
 C         3.297977        -0.162496        -0.050008
 C         4.714517         0.611200        -0.229798
 C         4.124157         1.993815        -0.108149
 O         2.935629         1.981709         0.683270
 C         2.601917         0.688918         1.021124
 O         2.307954         0.252880        -1.078574
 H        -0.431380        -0.118258         1.011320
 H        -0.268259         1.352415        -0.128304
 H        -0.240910        -0.305313        -0.805900
 H         2.175319        -1.711873         1.363578
 H         1.992659        -1.993027        -0.548540
 H         5.239422         0.463315         0.719556
 H         5.287094         0.548057        -1.111523
 H         4.712919         2.721147         0.461916
 H         4.018005         2.361702        -1.093213
 H         2.494194         0.573013         2.080569
