19
Iteration:  3832charge 0 multiplicity 1
 C        -0.116949         0.173434        -0.033631
 C         1.479958         0.006901         0.021397
 C         2.388415        -1.258717         0.414474
 C         3.281286        -0.122137        -0.097061
 C         4.701870         0.558362        -0.334148
 C         4.287474         2.132521         0.043411
 O         3.000390         2.088458         0.774420
 C         2.510696         0.724513         0.982464
 O         2.231939         0.169606        -1.151001
 H        -0.500252         0.187378         1.013176
 H        -0.318232         1.133082        -0.425471
 H        -0.706857        -0.498252        -0.574663
 H         2.526064        -1.489381         1.469942
 H         2.407629        -2.160582        -0.113738
 H         5.398452         0.092460         0.411465
 H         5.016041         0.415043        -1.491419
 H         5.069569         2.530669         0.597800
 H         4.010004         2.765541        -0.825191
 H         2.510645         0.364078         2.032670
