19
Iteration:  2716
 C        -0.097668         0.041526         0.105157
 C         1.470400         0.002166         0.104288
 C         2.399558        -1.237444         0.253755
 C         3.342925        -0.094118        -0.035960
 C         4.662256         0.512284        -0.271809
 C         4.280744         1.989701         0.069446
 O         2.937577         2.086448         0.565432
 C         2.478109         0.848994         0.980942
 O         2.289422         0.327349        -1.116473
 H        -0.410989        -0.417468         1.033780
 H        -0.421869         1.124274         0.076313
 H        -0.549187        -0.509162        -0.780156
 H         2.419579        -1.638255         1.339978
 H         2.241302        -1.930789        -0.584585
 H         5.241401        -0.007883         0.470416
 H         5.028683         0.393921        -1.298921
 H         4.993044         2.379399         0.858086
 H         4.505266         2.585642        -0.849134
 H         2.407846         0.696827         2.108652
