19
Iteration:   695charge 0 multiplicity 1
 C        -0.000723         0.268239        -0.071031
 C         1.407909        -0.088155         0.025361
 C         2.418988        -1.393397         0.344056
 C         3.295557        -0.055503        -0.062932
 C         4.565225         0.540063        -0.343493
 C         4.244272         2.015078         0.101345
 O         3.025864         2.193283         0.802614
 C         2.474267         0.756435         0.918074
 O         2.238507         0.192261        -1.077831
 H        -0.568288        -0.269679         0.684587
 H        -0.134866         1.290150         0.270096
 H        -0.240981        -0.051615        -1.105781
 H         2.500584        -1.863173         1.279964
 H         2.410942        -2.099282        -0.501647
 H         5.319608         0.176170         0.303249
 H         4.904513         0.571152        -1.482969
 H         5.128575         2.268810         0.761261
 H         4.443668         2.731469        -0.741042
 H         2.657044         0.613456         2.037010
