19
Iteration:   610
 C        -0.100302         0.140930         0.014633
 C         1.402152         0.104208         0.045597
 C         2.502537        -1.419749         0.172044
 C         3.256782        -0.114754        -0.077425
 C         4.649991         0.470788        -0.107199
 C         4.289540         2.006505        -0.143355
 O         3.006619         2.081171         0.832683
 C         2.472767         0.759164         1.001519
 O         2.258993         0.446736        -1.092759
 H        -0.406311         0.150129         1.081944
 H        -0.470712         1.057192        -0.475957
 H        -0.519798        -0.767589        -0.433115
 H         2.652735        -2.065105         1.110644
 H         2.620797        -1.986162        -0.788641
 H         5.230004         0.063820         0.760021
 H         5.164949         0.058518        -1.008013
 H         4.972317         2.830947         0.163139
 H         3.856972         2.209513        -1.170674
 H         2.490201         0.696376         2.091343
