19
Iteration:   650
 C        -0.019228         0.072320        -0.018506
 C         1.467481         0.075457         0.137138
 C         2.250838        -1.362458         0.235138
 C         3.193896        -0.080375        -0.082965
 C         4.694485         0.468426        -0.212336
 C         4.305682         2.043575        -0.035533
 O         2.971680         2.082487         0.754641
 C         2.549301         0.788701         0.950391
 O         2.329811         0.419818        -1.066836
 H        -0.416596        -0.274314         0.947833
 H        -0.669212         0.911782        -0.193787
 H        -0.122802        -0.757541        -0.740254
 H         2.235049        -1.693118         1.222069
 H         2.049306        -2.045978        -0.629109
 H         5.298034         0.094668         0.583079
 H         5.333429         0.272340        -1.171388
 H         5.022049         2.751789         0.449475
 H         4.093575         2.442860        -1.034543
 H         2.568346         0.253833         1.920147
