19
Iteration:  2526
 C         0.009185         0.036426         0.076042
 C         1.424650         0.042675         0.021867
 C         2.334503        -1.265934         0.397254
 C         3.230631        -0.108114        -0.050160
 C         4.679533         0.566666        -0.311392
 C         4.236835         1.995130         0.001646
 O         3.063002         2.144274         0.745187
 C         2.552334         0.805199         0.954307
 O         2.243206         0.272524        -1.207244
 H        -0.344167        -0.574255         0.981448
 H        -0.425169         1.045401         0.128155
 H        -0.387603        -0.471488        -0.814344
 H         2.303198        -1.507228         1.472744
 H         2.070237        -2.148478        -0.345593
 H         5.364008         0.123080         0.413458
 H         4.804957         0.389383        -1.351947
 H         4.997707         2.473082         0.592395
 H         4.109982         2.530953        -0.841561
 H         2.522692         0.661885         2.112485
