19
Iteration:  4184
 C        -0.077904         0.084536         0.095780
 C         1.473842        -0.004749         0.019793
 C         2.303105        -1.271420         0.333711
 C         3.285547        -0.121112        -0.062369
 C         4.718837         0.561969        -0.170492
 C         4.143617         2.049571        -0.105543
 O         3.069027         2.120589         0.864354
 C         2.497430         0.838436         0.858090
 O         2.348292         0.242043        -1.221127
 H        -0.312972        -0.025316         1.152344
 H        -0.436086         1.072859        -0.222515
 H        -0.617563        -0.714832        -0.452800
 H         2.210179        -1.802256         1.326311
 H         2.000655        -2.003716        -0.385283
 H         5.161627         0.333911         0.776696
 H         5.240547         0.196799        -1.032882
 H         5.019532         2.683312         0.236504
 H         4.013907         2.358310        -1.215128
 H         2.440312         0.506339         1.929819
