19
Iteration:  1095charge 0 multiplicity 1
 C        -0.033204         0.185257         0.002361
 C         1.457402        -0.018720         0.101230
 C         2.382468        -1.301857         0.252264
 C         3.260596        -0.105857         0.081086
 C         4.623563         0.510235        -0.188712
 C         4.218562         2.039894        -0.151763
 O         3.079169         2.072815         0.738428
 C         2.495013         0.760806         0.975543
 O         2.239236         0.314589        -1.102679
 H        -0.506659        -0.380312         0.800539
 H        -0.174633         1.249776         0.124466
 H        -0.399115        -0.159525        -0.988304
 H         2.463217        -1.800577         1.205920
 H         2.409522        -1.997995        -0.587166
 H         5.396796         0.193790         0.623191
 H         4.980388         0.173553        -1.258462
 H         5.063062         2.671648         0.203093
 H         3.849285         2.339674        -1.203565
 H         2.494297         0.726191         2.084210
