19
Iteration:   924
 C        -0.034412         0.154336         0.081842
 C         1.438797        -0.040317        -0.019298
 C         2.397710        -1.311607         0.279737
 C         3.288968        -0.039743        -0.018110
 C         4.640947         0.460874        -0.157963
 C         4.260027         1.946208        -0.079852
 O         2.975552         2.114384         0.742590
 C         2.427411         0.837144         0.932686
 O         2.343127         0.345381        -1.144808
 H        -0.158415        -0.339716         1.093590
 H        -0.152210         1.251702         0.195848
 H        -0.675925        -0.300481        -0.714962
 H         2.583740        -1.882798         1.322708
 H         2.128922        -2.058764        -0.476443
 H         5.277923         0.059456         0.644009
 H         5.004595         0.398946        -1.247134
 H         5.031979         2.508203         0.434362
 H         3.979167         2.502173        -0.954160
 H         2.372721         0.477969         1.939946
