19
Iteration:   872charge 0 multiplicity 1
 C         0.038915         0.308703        -0.051822
 C         1.459750         0.017086         0.141074
 C         2.323037        -1.357898         0.291839
 C         3.312214        -0.158961        -0.016739
 C         4.703449         0.563350        -0.283647
 C         4.149769         2.033272        -0.134273
 O         2.908981         2.037891         0.805935
 C         2.564549         0.707270         1.004615
 O         2.319639         0.304353        -1.076734
 H        -0.584126        -0.288101         0.628137
 H        -0.075567         1.391954        -0.132338
 H        -0.045652        -0.070479        -1.062585
 H         2.240507        -1.757118         1.277124
 H         2.139823        -2.121795        -0.396043
 H         5.424959         0.180380         0.512274
 H         5.216510         0.374652        -1.235982
 H         4.751003         2.813192         0.346965
 H         3.654162         2.335518        -1.053650
 H         2.524698         0.361687         2.078030
