19
Iteration:  1794charge 0 multiplicity 1
 C        -0.073271         0.126383         0.121109
 C         1.433785        -0.016803         0.084593
 C         2.412454        -1.300462         0.176881
 C         3.248314        -0.065286        -0.014457
 C         4.609814         0.411367        -0.205985
 C         4.188104         2.054956        -0.134399
 O         3.062545         2.142899         0.861819
 C         2.528618         0.783827         0.951315
 O         2.317688         0.324599        -1.159476
 H        -0.391692        -0.426931         0.967387
 H        -0.383111         1.123285         0.169622
 H        -0.391860        -0.362328        -0.826066
 H         2.368288        -1.857271         1.115289
 H         2.306167        -1.949132        -0.743290
 H         5.250948         0.179348         0.662825
 H         5.004705         0.194294        -1.144676
 H         4.918662         2.793985        -0.000553
 H         3.877100         2.339552        -1.175701
 H         2.709775         0.613004         2.029662
