19
Iteration:    60
 C        -0.014268         0.235049         0.117694
 C         1.470314         0.016151         0.033168
 C         2.531786        -1.413175         0.246002
 C         3.279340        -0.090148        -0.020192
 C         4.558698         0.516113        -0.165995
 C         4.265365         1.977212        -0.069908
 O         2.911642         2.100091         0.700995
 C         2.511747         0.765640         0.954633
 O         2.248362         0.351077        -1.161507
 H        -0.326149         0.305669         1.212984
 H        -0.123360         1.280848        -0.324955
 H        -0.673447        -0.521848        -0.447898
 H         2.681609        -1.825503         1.291268
 H         2.459894        -2.156047        -0.602732
 H         5.233470         0.090672         0.754105
 H         5.136451         0.136279        -1.077152
 H         4.968094         2.608239         0.530384
 H         4.027136         2.318602        -1.104979
 H         2.340489         0.516879         2.022145
