19
Iteration:  4233
 C         0.025058         0.010887        -0.116160
 C         1.486659        -0.000997         0.228616
 C         2.419323        -1.266900         0.318676
 C         3.238716        -0.123414        -0.032033
 C         4.612466         0.360632        -0.389783
 C         4.278063         1.960780        -0.002581
 O         2.926125         2.207310         0.653203
 C         2.480903         0.867066         1.064475
 O         2.231322         0.447871        -0.982488
 H        -0.732515         0.026104         0.660586
 H        -0.118144         0.894019        -0.779519
 H        -0.100000        -0.872523        -0.725671
 H         2.669590        -1.695956         1.265537
 H         2.528410        -2.118759        -0.421360
 H         5.529094         0.003029         0.306121
 H         4.723011         0.178855        -1.514364
 H         5.130073         2.344309         0.493926
 H         4.401225         2.426402        -0.946612
 H         2.470405         0.698708         2.119782
