19
Iteration:  3039charge 0 multiplicity 1
 C        -0.066441         0.107870        -0.031057
 C         1.430687         0.043424         0.127695
 C         2.442206        -1.287946         0.258870
 C         3.220612        -0.002646        -0.030050
 C         4.633938         0.480261        -0.278812
 C         4.228511         1.990144        -0.088094
 O         3.052459         2.077739         0.744251
 C         2.568025         0.803342         1.054885
 O         2.202080         0.286523        -1.068527
 H        -0.513035         0.031083         0.929809
 H        -0.407752         1.117420        -0.420101
 H        -0.327416        -0.751358        -0.768847
 H         2.559498        -1.750991         1.317122
 H         2.468552        -1.995876        -0.610652
 H         5.298081         0.135467         0.551033
 H         5.229877         0.261471        -1.225028
 H         5.004370         2.685284         0.315400
 H         4.013042         2.309489        -1.123031
 H         2.631516         0.570686         2.101623
