19
Iteration:  4400charge 0 multiplicity 1
 C        -0.146786         0.062572        -0.207604
 C         1.411158        -0.052088         0.041089
 C         2.399463        -1.209396         0.456826
 C         3.261724         0.003558        -0.042126
 C         4.566110         0.569068        -0.258606
 C         4.206613         2.043926        -0.164461
 O         3.200611         2.166161         0.958286
 C         2.622100         0.834855         1.030217
 O         2.205270         0.105557        -1.132832
 H        -0.601470        -0.012799         0.804899
 H        -0.142847         1.026599        -0.751898
 H        -0.316194        -0.810688        -0.894687
 H         2.451225        -1.710168         1.468183
 H         2.241896        -1.931375        -0.326370
 H         5.202704         0.374018         0.678631
 H         5.105174         0.215331        -1.278344
 H         4.950535         2.812807        -0.047925
 H         3.694481         2.304852        -1.104162
 H         2.603284         0.406462         2.026225
