19
Iteration:  4272
 C        -0.066253         0.123683         0.049974
 C         1.448784        -0.034558         0.073852
 C         2.269692        -1.279137         0.391083
 C         3.341263        -0.119267        -0.044442
 C         4.690163         0.596194        -0.340005
 C         4.341474         2.118675         0.120989
 O         2.972685         2.175316         0.662477
 C         2.546798         0.771629         0.884074
 O         2.247172         0.117660        -1.160038
 H        -0.536142        -0.253242         1.014328
 H        -0.338694         1.172389        -0.170834
 H        -0.393722        -0.476009        -0.851540
 H         2.096115        -1.512533         1.516732
 H         2.092838        -2.173995        -0.186731
 H         5.496630         0.085802         0.145444
 H         4.868580         0.578420        -1.375936
 H         4.988182         2.371849         1.031208
 H         4.292212         2.777806        -0.818014
 H         2.578233         0.664116         2.058507
