19
Iteration:   413
 C         0.075748         0.248939        -0.102970
 C         1.467988        -0.001216         0.161007
 C         2.282709        -1.354074         0.226009
 C         3.296691        -0.098499        -0.039660
 C         4.666454         0.568160        -0.304250
 C         4.243810         2.132716        -0.056872
 O         2.939883         2.002958         0.786401
 C         2.568836         0.702191         1.111409
 O         2.231228         0.282090        -1.044937
 H        -0.604799         0.307078         0.757163
 H        -0.036525         1.062430        -0.813662
 H        -0.160586        -0.602380        -0.793694
 H         2.318656        -1.855826         1.164493
 H         2.082131        -2.003358        -0.679181
 H         5.435216         0.040536         0.275097
 H         4.971675         0.556395        -1.375675
 H         4.917317         2.642572         0.542827
 H         3.869882         2.730559        -0.917609
 H         2.763805         0.232223         2.087651
