19
Iteration:  2105
 C        -0.077813         0.260906         0.101933
 C         1.436292         0.009727         0.114433
 C         2.510257        -1.353922         0.310220
 C         3.293529        -0.058820        -0.118001
 C         4.716089         0.531806        -0.265168
 C         4.201353         1.994683         0.039697
 O         2.923850         2.177068         0.792264
 C         2.568778         0.720227         0.873412
 O         2.207587         0.202236        -1.228254
 H        -0.466528         0.108702         1.094892
 H        -0.254189         1.274055        -0.196870
 H        -0.605096        -0.631636        -0.373397
 H         2.528475        -1.716139         1.387095
 H         2.336834        -2.230630        -0.447440
 H         5.384498         0.176847         0.551902
 H         5.155433         0.322480        -1.248792
 H         5.027274         2.702331         0.505432
 H         3.915375         2.241586        -0.905596
 H         2.613367         0.481936         1.959949
