19
Iteration:   713
 C        -0.079313         0.271687        -0.058948
 C         1.505668        -0.002145         0.171186
 C         2.414069        -1.319854         0.300311
 C         3.259478        -0.147277        -0.094704
 C         4.610999         0.574596        -0.322000
 C         4.344060         2.067592         0.130802
 O         2.888963         2.043945         0.704263
 C         2.584341         0.788222         1.022526
 O         2.261836         0.196518        -1.161120
 H        -0.811699        -0.230344         0.619300
 H        -0.251144         1.386811        -0.019115
 H        -0.332411         0.007006        -1.138096
 H         2.674009        -1.791043         1.281982
 H         2.141149        -2.118195        -0.467143
 H         5.336609         0.007755         0.312264
 H         4.780745         0.355181        -1.405815
 H         4.971279         2.513020         0.890638
 H         4.183309         2.799529        -0.628856
 H         2.745674         0.475864         2.109228
