19
Iteration:   376
 C        -0.022287         0.368537        -0.006874
 C         1.513556        -0.003398         0.039705
 C         2.441216        -1.360921         0.286122
 C         3.287553        -0.099569        -0.055948
 C         4.659317         0.446585        -0.404903
 C         4.192465         2.099523         0.024681
 O         2.841331         2.045732         0.870060
 C         2.458313         0.680021         0.999267
 O         2.398269         0.243365        -1.104820
 H        -0.622821         0.039626         0.832928
 H        -0.132240         1.478745        -0.003113
 H        -0.415052        -0.135729        -0.856065
 H         2.528825        -1.692462         1.363043
 H         2.280147        -2.158997        -0.379485
 H         5.554447         0.163114         0.142616
 H         4.840526         0.283860        -1.480596
 H         4.863028         2.918099         0.460849
 H         3.951233         2.495812        -0.952371
 H         2.480751         0.457508         2.084246
