19
Iteration:  4059
 C        -0.086548        -0.022533         0.030599
 C         1.466616         0.025504        -0.002877
 C         2.298100        -1.221243         0.296140
 C         3.253772        -0.052354        -0.107542
 C         4.646240         0.535309        -0.220452
 C         4.219913         2.101914         0.018863
 O         3.171281         2.145600         0.879486
 C         2.479312         0.868649         0.894734
 O         2.271516         0.187070        -1.205324
 H        -0.313093        -0.230265         1.166273
 H        -0.683093         0.904550        -0.208563
 H        -0.441544        -0.920125        -0.521848
 H         2.373896        -1.486885         1.386773
 H         2.083942        -2.037915        -0.415199
 H         5.183707         0.184310         0.627581
 H         5.164722         0.193608        -1.122023
 H         5.257588         2.383512         0.409738
 H         4.019588         2.364427        -1.006734
 H         2.469217         0.557850         2.015083
