19
Iteration:  1158
 C        -0.094826         0.080687        -0.027424
 C         1.337246        -0.022077         0.147249
 C         2.465363        -1.353966         0.254254
 C         3.253246        -0.096567        -0.034450
 C         4.611931         0.456518        -0.337690
 C         4.361442         1.971854        -0.027810
 O         3.106399         2.245514         0.778033
 C         2.427018         0.840517         0.947192
 O         2.245162         0.310437        -1.042724
 H        -0.573872         0.211877         0.933970
 H        -0.386762         1.006130        -0.515702
 H        -0.512772        -0.764399        -0.618109
 H         2.656965        -1.770264         1.309931
 H         2.527360        -2.164993        -0.567036
 H         5.242832         0.136017         0.500538
 H         4.919762         0.418924        -1.346352
 H         5.096788         2.479590         0.534294
 H         4.359776         2.428222        -0.983332
 H         2.231948         0.657021         1.970994
