19
Iteration:  1220
 C        -0.060735         0.193037         0.139887
 C         1.440489        -0.009689         0.078491
 C         2.243211        -1.280296         0.333747
 C         3.252182        -0.095615        -0.074530
 C         4.631059         0.528316        -0.250871
 C         4.195134         2.031253         0.012336
 O         2.900982         2.110508         0.693665
 C         2.590130         0.716396         0.915961
 O         2.489694         0.258299        -1.221524
 H        -0.209050        -0.046469         1.214723
 H        -0.142662         1.266100        -0.096470
 H        -0.644515        -0.500074        -0.485155
 H         2.166947        -1.617544         1.337019
 H         2.274782        -2.041842        -0.450486
 H         5.346699         0.145097         0.486892
 H         5.113492         0.258929        -1.184428
 H         4.931376         2.589992         0.730629
 H         4.116264         2.578389        -0.936688
 H         2.821342         0.516275         1.995748
