19
Iteration:   892
 C        -0.045617         0.311779        -0.016370
 C         1.544221        -0.026456         0.095723
 C         2.308993        -1.334187         0.301230
 C         3.325077        -0.108793        -0.113677
 C         4.681554         0.562300        -0.099722
 C         4.117337         2.054479        -0.057140
 O         2.995818         2.059617         0.752838
 C         2.621192         0.722632         0.959362
 O         2.211291         0.200039        -1.160990
 H        -0.597612        -0.271611         0.771464
 H        -0.206690         1.398418         0.149532
 H        -0.556384         0.074865        -0.980269
 H         2.611538        -1.811724         1.284151
 H         2.058697        -1.991711        -0.500377
 H         5.383230         0.360247         0.733132
 H         5.397272         0.609770        -0.984236
 H         4.922214         2.649605         0.327767
 H         3.766880         2.336013        -1.030029
 H         2.795839         0.355558         1.960678
