19
Iteration:  1349charge 0 multiplicity 1
 C        -0.056246         0.146663        -0.008208
 C         1.494751         0.038055         0.116728
 C         2.385507        -1.280843         0.283795
 C         3.288319        -0.166904        -0.142857
 C         4.653557         0.537438        -0.194668
 C         4.214508         2.056298        -0.032781
 O         3.013605         2.079240         0.789456
 C         2.607818         0.708915         0.976557
 O         2.160345         0.291032        -1.161378
 H        -0.515901         0.276318         0.982408
 H        -0.248939         1.131821        -0.460537
 H        -0.613064        -0.572320        -0.605904
 H         2.635466        -1.552022         1.380080
 H         2.206231        -2.160983        -0.386189
 H         5.220142         0.332130         0.781328
 H         5.281610         0.614088        -1.109174
 H         5.061859         2.591566         0.404101
 H         3.950439         2.461855        -1.013773
 H         2.700958         0.524799         2.028530
