19
Iteration:  2989charge 0 multiplicity 1
 C        -0.064212         0.002397         0.080107
 C         1.477952         0.073912         0.110195
 C         2.282754        -1.142566         0.305614
 C         3.313515        -0.087931        -0.070717
 C         4.601597         0.500896        -0.315720
 C         4.293301         2.030182         0.065520
 O         3.006898         2.073781         0.685357
 C         2.542341         0.794277         0.892734
 O         2.285651         0.261089        -1.118439
 H        -0.344478        -0.131554         1.179618
 H        -0.518105         0.922454        -0.283423
 H        -0.361076        -0.851010        -0.453405
 H         2.375013        -1.667325         1.196655
 H         1.907024        -1.771698        -0.537300
 H         5.515029         0.186717         0.294973
 H         5.008985         0.423326        -1.327471
 H         5.058355         2.299522         0.855647
 H         4.295461         2.610290        -0.883116
 H         2.539797         0.620992         2.105276
