19
Iteration:  2976
 C         0.002129         0.065950         0.170778
 C         1.429382        -0.000147         0.085224
 C         2.250217        -1.321040         0.327745
 C         3.252265        -0.081906        -0.036343
 C         4.684760         0.559176        -0.334818
 C         4.328664         1.999769         0.080822
 O         2.986359         2.145621         0.699703
 C         2.489867         0.828660         0.903808
 O         2.318793         0.279737        -1.249337
 H        -0.371474        -0.167547         1.167173
 H        -0.412308         1.066110        -0.133585
 H        -0.423622        -0.658155        -0.545188
 H         2.242467        -1.602572         1.388450
 H         2.163631        -2.183546        -0.397981
 H         5.552808         0.081080         0.359333
 H         4.796275         0.431395        -1.477423
 H         5.063903         2.476551         0.796891
 H         4.361855         2.711133        -0.724507
 H         2.421145         0.489224         2.021440
