19
Iteration:   276charge 0 multiplicity 1
 C        -0.073745         0.029948        -0.085856
 C         1.446394         0.002212         0.087435
 C         2.325429        -1.260252         0.260205
 C         3.284591        -0.071702        -0.017565
 C         4.591927         0.498430        -0.351085
 C         4.243173         2.025805         0.036174
 O         3.053288         2.147495         0.838754
 C         2.564426         0.782552         0.991683
 O         2.293944         0.303283        -1.083996
 H        -0.606203         0.016470         0.865648
 H        -0.484058         0.962865        -0.500193
 H        -0.355711        -0.694927        -0.847274
 H         2.385526        -1.488669         1.326178
 H         2.255238        -2.045676        -0.543335
 H         5.449531         0.011526         0.185919
 H         4.870973         0.344445        -1.374048
 H         5.146402         2.447267         0.627612
 H         4.070300         2.571667        -0.921539
 H         2.651175         0.633212         2.095420
