19
Iteration:  4465
 C         0.005627         0.209206         0.059861
 C         1.529443        -0.044192         0.106466
 C         2.426252        -1.357855         0.288612
 C         3.304268        -0.114532         0.058350
 C         4.666280         0.485296        -0.194907
 C         4.186989         2.025277        -0.065085
 O         2.847973         2.138308         0.551959
 C         2.472402         0.776793         0.987796
 O         2.353138         0.309626        -1.068464
 H        -0.549867        -0.082563         0.938186
 H        -0.194861         1.269452        -0.090203
 H        -0.487224        -0.138645        -0.846599
 H         2.607113        -2.041012         1.188276
 H         2.159421        -1.988162        -0.533004
 H         5.326554         0.023998         0.643747
 H         5.120316         0.167914        -1.274253
 H         4.877160         2.730755         0.417930
 H         3.932330         2.386783        -1.099947
 H         2.420431         0.796541         2.061763
