19
Iteration:  1409charge 0 multiplicity 1
 C         0.001565         0.168242         0.109198
 C         1.431893         0.003564         0.015110
 C         2.424329        -1.267455         0.294134
 C         3.310175        -0.094471         0.032401
 C         4.588488         0.516214        -0.310259
 C         4.324670         1.989510         0.032168
 O         2.871029         2.052035         0.657537
 C         2.447461         0.782709         0.963894
 O         2.331198         0.314447        -1.110819
 H        -0.421539        -0.128202         1.100743
 H        -0.261539         1.262225         0.104388
 H        -0.556921        -0.330325        -0.701379
 H         2.415297        -1.791555         1.236256
 H         2.520781        -1.915369        -0.557637
 H         5.507987         0.092546         0.060617
 H         4.748442         0.353134        -1.411409
 H         5.231718         2.346394         0.660387
 H         4.347626         2.769484        -0.805592
 H         2.408709         0.349724         1.960550
