19
Iteration:   437
 C        -0.116017         0.098147         0.021948
 C         1.433771        -0.020305         0.037869
 C         2.404555        -1.317714         0.249503
 C         3.300675        -0.060197        -0.080884
 C         4.593424         0.523107        -0.229334
 C         4.264187         1.943727        -0.006018
 O         3.042654         2.101314         0.816812
 C         2.553044         0.779177         0.997151
 O         2.291233         0.415184        -1.156390
 H        -0.585656         0.136984         1.039462
 H        -0.356042         0.950297        -0.646432
 H        -0.505810        -0.699378        -0.672714
 H         2.507363        -1.770661         1.241679
 H         2.178496        -1.983339        -0.620551
 H         5.120050         0.142460         0.749615
 H         5.192215         0.349492        -1.121315
 H         4.988885         2.539591         0.494928
 H         3.839531         2.408428        -0.917513
 H         2.602967         0.368583         2.039571
