19
Iteration:  3501
 C        -0.138156        -0.011178         0.042790
 C         1.377135        -0.118578         0.096163
 C         2.369267        -1.238149         0.417288
 C         3.329716        -0.066793        -0.100513
 C         4.674099         0.502406        -0.270482
 C         4.365298         1.993500         0.072351
 O         3.067385         2.239300         0.713649
 C         2.544662         0.867537         0.818423
 O         2.158550         0.303721        -1.180856
 H        -0.597693        -0.005850         1.012687
 H        -0.409233         0.975596        -0.409159
 H        -0.704295        -0.771237        -0.546654
 H         2.451869        -1.529800         1.428204
 H         2.305250        -2.136665        -0.255893
 H         5.219857         0.102420         0.646988
 H         5.157125         0.247176        -1.216925
 H         5.161098         2.255034         0.871450
 H         4.445422         2.543062        -0.855788
 H         2.612998         0.546651         1.915467
