19
Iteration:  1345
 C        -0.087731         0.148886        -0.022598
 C         1.464047         0.052521         0.114440
 C         2.400932        -1.316224         0.286287
 C         3.288809        -0.157912        -0.127314
 C         4.648398         0.534189        -0.209453
 C         4.250050         2.030112        -0.044639
 O         3.011426         2.102695         0.824727
 C         2.583535         0.707029         0.923883
 O         2.188561         0.295821        -1.127976
 H        -0.414327         0.248316         1.050619
 H        -0.335300         1.183016        -0.407936
 H        -0.572338        -0.649064        -0.635766
 H         2.682092        -1.505045         1.373185
 H         2.317697        -2.149117        -0.393850
 H         5.167147         0.335533         0.685858
 H         5.299710         0.568383        -1.129787
 H         5.045943         2.725774         0.279424
 H         3.939500         2.481106        -1.053681
 H         2.614103         0.448833         2.071683
