19
Iteration:  3933charge 0 multiplicity 1
 C        -0.056545         0.218078        -0.072357
 C         1.514777        -0.056290         0.091368
 C         2.437515        -1.288223         0.342710
 C         3.262789        -0.092012        -0.002973
 C         4.602873         0.574277        -0.225228
 C         4.189709         2.063966        -0.065672
 O         3.002196         2.140709         0.817487
 C         2.561520         0.769993         0.971862
 O         2.229728         0.136703        -1.161950
 H        -0.617563        -0.250757         0.662087
 H        -0.205110         1.311713         0.011001
 H        -0.445079        -0.072977        -1.047267
 H         2.569675        -1.640101         1.327239
 H         2.157664        -2.031184        -0.475771
 H         5.314730         0.191533         0.603979
 H         5.165203         0.383373        -1.197934
 H         5.015680         2.629624         0.272917
 H         4.051361         2.435454        -1.098872
 H         2.652583         0.375160         2.017349
