19
Iteration:  2936
 C        -0.002653         0.263398         0.125478
 C         1.520983        -0.030818         0.223057
 C         2.429688        -1.316963         0.303742
 C         3.307238        -0.077452        -0.140713
 C         4.677168         0.514428        -0.264548
 C         4.313636         2.003465         0.092102
 O         2.854381         2.052429         0.596718
 C         2.495315         0.779531         0.940711
 O         2.166379         0.242866        -1.177357
 H        -0.789380        -0.221602         0.824063
 H        -0.038687         1.322863        -0.080270
 H        -0.221255        -0.157572        -0.821532
 H         2.569364        -1.793293         1.258650
 H         2.395197        -2.025783        -0.558474
 H         5.343662         0.161686         0.411050
 H         5.079887         0.571629        -1.229280
 H         4.939607         2.436159         0.915698
 H         4.270732         2.744523        -0.761640
 H         2.736253         0.655221         2.004067
