19
Iteration:   385
 C         0.030183         0.356735        -0.053638
 C         1.491544        -0.029203         0.067123
 C         2.404362        -1.341663         0.300143
 C         3.318942        -0.192593        -0.033348
 C         4.604939         0.479983        -0.396756
 C         4.094615         2.078737        -0.021931
 O         2.904039         2.048135         0.832898
 C         2.497492         0.690886         0.989846
 O         2.400849         0.304496        -1.044474
 H        -0.534436         0.054116         0.850856
 H         0.107498         1.402669        -0.417517
 H        -0.443770        -0.152134        -0.902802
 H         2.468558        -1.673491         1.380996
 H         2.295151        -2.174289        -0.407243
 H         5.558019         0.142600         0.155807
 H         4.540603         0.630137        -1.449173
 H         4.883618         2.507632         0.766093
 H         3.795507         2.775472        -0.829770
 H         2.671003         0.375729         2.061551
