19
Iteration:  4479
 C         0.045267         0.242456         0.096215
 C         1.436331        -0.061690         0.137287
 C         2.399470        -1.334454         0.250509
 C         3.273593        -0.089014        -0.026494
 C         4.629087         0.601254        -0.106059
 C         4.291416         2.066172        -0.051899
 O         2.874075         2.071328         0.525629
 C         2.501216         0.820217         0.913408
 O         2.266843         0.163713        -1.084526
 H        -0.430212        -0.259212         1.023749
 H        -0.062818         1.335715         0.180852
 H        -0.467102        -0.257444        -0.802179
 H         2.457655        -1.879606         1.228294
 H         2.443100        -1.923345        -0.647499
 H         5.272889         0.407568         0.772771
 H         5.251006         0.356789        -0.990190
 H         4.939283         2.469221         0.686480
 H         4.379800         2.532567        -1.021438
 H         2.560541         0.564971         1.983107
