19
Iteration:  4280charge 0 multiplicity 1
 C        -0.036364         0.160205         0.081593
 C         1.475903        -0.018930         0.081712
 C         2.295835        -1.331738         0.406360
 C         3.261049        -0.095819        -0.127392
 C         4.688378         0.582721        -0.299752
 C         4.338288         2.119875         0.166149
 O         2.924626         2.170824         0.665678
 C         2.545048         0.848896         0.844623
 O         2.257455         0.063795        -1.192475
 H        -0.350790        -0.288708         1.047999
 H        -0.285216         1.292317         0.087243
 H        -0.433821        -0.435349        -0.826976
 H         2.334766        -1.549556         1.487845
 H         1.940182        -2.248281        -0.080506
 H         5.343048         0.046741         0.331894
 H         5.085548         0.711132        -1.368306
 H         5.142286         2.480652         0.793089
 H         4.516047         2.751279        -0.686171
 H         2.496929         0.352181         1.829386
