19
Iteration:  4885
 C         0.022614         0.014944        -0.190452
 C         1.398579        -0.004551         0.250648
 C         2.299364        -1.216103         0.417520
 C         3.267980        -0.066496         0.052834
 C         4.605704         0.492740        -0.296793
 C         4.224013         2.062167        -0.054190
 O         3.022701         2.121706         0.599816
 C         2.633669         0.859654         1.035742
 O         2.255106         0.253870        -1.035765
 H        -0.615618        -0.326611         0.561809
 H        -0.320817         0.969857        -0.559353
 H        -0.100101        -0.669063        -0.939354
 H         2.457759        -1.870557         1.291196
 H         2.032622        -1.813415        -0.399387
 H         5.607040         0.258569         0.169130
 H         4.661929         0.099029        -1.356800
 H         5.105045         2.335507         0.589996
 H         4.248338         2.746670        -0.996314
 H         2.578092         0.608894         2.073500
