19
Iteration:   749
 C        -0.017939         0.146268         0.088161
 C         1.471542         0.013145         0.041944
 C         2.334639        -1.380916         0.213428
 C         3.321812        -0.171211        -0.045272
 C         4.578915         0.454168        -0.245044
 C         4.312863         2.079327         0.098631
 O         2.874027         2.099536         0.633723
 C         2.513757         0.804217         1.012540
 O         2.333854         0.385382        -1.158049
 H        -0.353314        -0.106044         1.118188
 H        -0.214385         1.229727        -0.161401
 H        -0.536414        -0.524395        -0.658331
 H         2.458510        -1.714877         1.226617
 H         2.013842        -2.128054        -0.516385
 H         5.335991         0.141874         0.458970
 H         5.154063         0.322598        -1.284510
 H         5.047342         2.253815         0.882727
 H         4.434835         2.720143        -0.792002
 H         2.665149         0.760195         2.170201
