19
Iteration:  1393charge 0 multiplicity 1
 C        -0.133040         0.241265         0.120489
 C         1.475818        -0.060982         0.053058
 C         2.447440        -1.351222         0.223329
 C         3.337933        -0.152222         0.021399
 C         4.634582         0.515352        -0.337681
 C         4.174945         1.978470         0.057579
 O         2.948969         2.096920         0.630976
 C         2.506296         0.798693         1.008524
 O         2.361197         0.330106        -1.131118
 H        -0.332955         0.120658         1.170602
 H        -0.227428         1.270220        -0.163162
 H        -0.598453        -0.453772        -0.568768
 H         2.499355        -1.722952         1.289515
 H         2.292553        -2.076957        -0.678318
 H         5.473117         0.142493         0.396952
 H         4.776405         0.409592        -1.403381
 H         4.731555         2.465655         0.817638
 H         4.206630         2.685968        -0.735024
 H         2.414596         0.742793         2.144934
