19
Iteration:  2389charge 0 multiplicity 1
 C        -0.026845         0.193004         0.087204
 C         1.458253        -0.053083         0.186642
 C         2.375964        -1.308377         0.278482
 C         3.230969        -0.124733        -0.087691
 C         4.663554         0.476650        -0.271205
 C         4.227968         2.056622        -0.084294
 O         2.915009         2.093471         0.657897
 C         2.576711         0.798535         0.978600
 O         2.328943         0.347787        -1.080538
 H        -0.458328        -0.394761         0.883944
 H        -0.292651         1.241054        -0.009234
 H        -0.405628        -0.478993        -0.779800
 H         2.550700        -1.732458         1.242477
 H         2.284857        -2.086023        -0.434596
 H         5.189778         0.057786         0.611786
 H         5.133793         0.245741        -1.249667
 H         5.072673         2.597560         0.412481
 H         3.872348         2.588301        -0.992433
 H         2.592946         0.494229         2.058385
