19
Iteration:  3435
 C         0.041912         0.294433         0.074909
 C         1.501591        -0.031517         0.064154
 C         2.290651        -1.361555         0.417942
 C         3.300666        -0.077229        -0.038657
 C         4.577643         0.617477        -0.320961
 C         4.269420         2.022650         0.051076
 O         2.855202         2.055783         0.577920
 C         2.482028         0.724169         0.937500
 O         2.408675         0.192564        -1.105236
 H        -0.398917        -0.065654         1.043498
 H        -0.049619         1.379036         0.019769
 H        -0.531800        -0.137708        -0.758618
 H         2.536768        -1.691350         1.421302
 H         2.142959        -2.103092        -0.372394
 H         5.400212         0.190179         0.306199
 H         4.928246         0.620320        -1.316717
 H         4.992816         2.593845         0.793170
 H         4.100035         2.548755        -0.871173
 H         2.611865         0.475103         1.969392
