19
Iteration:  1132charge 0 multiplicity 1
 C         0.025166         0.004018        -0.053359
 C         1.417015         0.073736         0.076286
 C         2.232490        -1.131702         0.365631
 C         3.265655        -0.079328        -0.029114
 C         4.586630         0.463224        -0.316890
 C         4.266238         2.064904        -0.036443
 O         3.072720         2.058693         0.774169
 C         2.642552         0.749819         1.043198
 O         2.251915         0.291405        -1.164729
 H        -0.396520        -0.172837         0.976583
 H        -0.494826         0.961889        -0.316845
 H        -0.303367        -0.769237        -0.744717
 H         2.252569        -1.380492         1.426344
 H         2.135780        -2.005428        -0.278324
 H         5.340750         0.117237         0.362284
 H         4.908599         0.296115        -1.383637
 H         4.958581         2.768708         0.561980
 H         4.158349         2.544812        -1.040234
 H         2.543841         0.354950         2.128590
