19
Iteration:  1669charge 0 multiplicity 1
 C        -0.030046        -0.020647         0.080789
 C         1.479079         0.097315         0.120103
 C         2.298354        -1.167171         0.265647
 C         3.285703        -0.095436        -0.108034
 C         4.630439         0.466258        -0.177711
 C         4.237376         2.029542        -0.025943
 O         3.059435         2.069715         0.752193
 C         2.569739         0.792946         0.939394
 O         2.245590         0.324397        -1.206836
 H        -0.140772        -0.419629         1.144406
 H        -0.663949         0.926893         0.048248
 H        -0.376063        -0.710311        -0.701781
 H         2.322337        -1.759855         1.284953
 H         1.769127        -1.648687        -0.541819
 H         5.514351         0.270630         0.541179
 H         5.111219         0.414218        -1.261667
 H         4.937158         2.594526         0.572265
 H         3.927001         2.323097        -1.006849
 H         2.598771         0.525029         2.094853
