19
Iteration:  2900charge 0 multiplicity 1
 C        -0.022851         0.174567         0.077105
 C         1.456807        -0.035923         0.117391
 C         2.367526        -1.303966         0.315664
 C         3.299402        -0.115787        -0.010507
 C         4.596636         0.545821        -0.342372
 C         4.271425         2.030002        -0.019284
 O         2.914546         2.020342         0.661585
 C         2.562987         0.778101         0.999089
 O         2.322820         0.342028        -1.116791
 H        -0.642694        -0.171276         0.893949
 H        -0.373771         1.234139        -0.017107
 H        -0.280906        -0.356285        -0.857033
 H         2.211809        -1.783260         1.258262
 H         2.247043        -1.991735        -0.524317
 H         5.503611         0.282781         0.327110
 H         5.011353         0.498432        -1.402834
 H         5.034004         2.496872         0.725662
 H         4.215981         2.701159        -0.886489
 H         2.416435         0.466332         2.155040
