19
Iteration:    25charge 0 multiplicity 1
 C         0.027180         0.168728         0.208484
 C         1.479639        -0.015864         0.028702
 C         2.182832        -1.374007         0.247141
 C         3.294276        -0.127313        -0.136931
 C         4.650913         0.597563        -0.093424
 C         4.231694         2.085776        -0.082415
 O         2.953451         2.087062         0.722178
 C         2.589913         0.702978         0.872284
 O         2.376563         0.297222        -1.208418
 H        -0.145083         0.205680         1.323560
 H        -0.221913         1.183466        -0.141319
 H        -0.737246        -0.550479        -0.242212
 H         2.080857        -1.755981         1.313912
 H         1.950554        -2.151541        -0.456722
 H         5.044146         0.414432         1.014602
 H         5.369441         0.372441        -0.819936
 H         4.980556         2.747109         0.384615
 H         3.980028         2.509188        -1.006948
 H         2.470352         0.471504         1.906400
