19
Iteration:  1023
 C        -0.035847         0.200719         0.043301
 C         1.495505        -0.026571         0.066002
 C         2.215641        -1.341266         0.342407
 C         3.309682        -0.129917        -0.055166
 C         4.622630         0.516119        -0.272697
 C         4.220768         2.120274        -0.029935
 O         3.013160         2.127414         0.832961
 C         2.568735         0.747904         0.884990
 O         2.363170         0.224884        -1.164328
 H        -0.499120         0.173587         1.063780
 H        -0.214548         1.208929        -0.413509
 H        -0.475770        -0.562384        -0.628618
 H         2.100667        -1.693082         1.469466
 H         2.028895        -2.147552        -0.376608
 H         5.425370         0.322922         0.406793
 H         4.834947         0.336462        -1.326002
 H         4.854826         2.835089         0.516133
 H         4.055817         2.500850        -1.038666
 H         2.632436         0.390068         1.918646
