19
Iteration:  1752
 C         0.012808         0.253157         0.011542
 C         1.530112        -0.045747         0.116653
 C         2.298872        -1.324515         0.336828
 C         3.298156        -0.079668        -0.110476
 C         4.661248         0.506123        -0.318855
 C         4.106905         2.098178        -0.067404
 O         2.950175         2.008527         0.795794
 C         2.639927         0.650615         1.006424
 O         2.303180         0.340443        -1.097901
 H        -0.695504         0.113716         0.834965
 H        -0.028554         1.299372        -0.272296
 H        -0.596806        -0.325609        -0.662910
 H         2.283441        -1.605029         1.368515
 H         2.309627        -2.163201        -0.380558
 H         5.357608         0.125906         0.383932
 H         4.937156         0.413544        -1.346950
 H         4.717969         2.961188         0.292521
 H         3.831516         2.605338        -1.039188
 H         2.780775         0.339490         1.998860
