19
Iteration:  2057
 C        -0.000921         0.208432         0.014515
 C         1.482125         0.012473         0.104220
 C         2.276487        -1.317373         0.232755
 C         3.346578        -0.149437         0.010526
 C         4.723643         0.554667        -0.275716
 C         4.040688         2.011834        -0.190420
 O         2.931942         2.062247         0.802122
 C         2.615580         0.746589         1.014557
 O         2.371928         0.328380        -1.016912
 H        -0.512043         0.006070         1.033444
 H        -0.145429         1.313314        -0.287212
 H        -0.442692        -0.565871        -0.592111
 H         2.399008        -2.102619         1.128203
 H         2.154473        -1.779701        -0.721924
 H         5.456544         0.201441         0.485089
 H         4.930044         0.482550        -1.367015
 H         4.633670         2.791986         0.121197
 H         3.673757         2.146238        -1.288889
 H         2.708869         0.502316         2.045999
