19
Iteration:  1683charge 0 multiplicity 1
 C        -0.028166         0.058876         0.136687
 C         1.450383         0.094067         0.098577
 C         2.245163        -1.288769         0.314981
 C         3.255844        -0.135288        -0.077030
 C         4.653011         0.535632        -0.287791
 C         4.235720         2.077594        -0.039258
 O         3.014230         2.030344         0.773190
 C         2.543848         0.750068         0.910816
 O         2.356157         0.389765        -1.185904
 H        -0.439325        -0.324457         1.048457
 H        -0.481598         0.976560        -0.180029
 H        -0.252355        -0.735890        -0.578451
 H         2.392639        -1.598275         1.345658
 H         2.239191        -2.149912        -0.310146
 H         5.241680         0.066089         0.508780
 H         5.067877         0.275453        -1.267312
 H         5.003541         2.682141         0.405885
 H         4.061854         2.615233        -0.987135
 H         2.496614         0.422953         1.966578
