19
Iteration:  3238charge 0 multiplicity 1
 C         0.028066         0.134825         0.036611
 C         1.508884         0.060404         0.103830
 C         2.380583        -1.316728         0.272732
 C         3.279112        -0.107646        -0.035500
 C         4.635527         0.512470        -0.301922
 C         4.273994         1.952904         0.010551
 O         2.869985         2.124109         0.587346
 C         2.537620         0.801530         1.010014
 O         2.260018         0.306875        -1.039439
 H        -0.407926        -0.187167         1.032296
 H        -0.198816         1.156611        -0.259088
 H        -0.377551        -0.520790        -0.731562
 H         2.504919        -1.738740         1.361669
 H         2.328485        -2.140141        -0.453646
 H         5.229654        -0.065059         0.403288
 H         4.834787         0.454713        -1.338858
 H         5.002563         2.433428         0.745797
 H         4.304142         2.626656        -0.821506
 H         2.493936         0.686241         2.170244
