19
Iteration:  2817charge 0 multiplicity 1
 C        -0.009289         0.091560        -0.033833
 C         1.501416        -0.004385         0.132392
 C         2.390537        -1.273084         0.213499
 C         3.251921        -0.118716        -0.000115
 C         4.611068         0.477324        -0.226768
 C         4.189555         2.012984        -0.152396
 O         3.007516         2.080363         0.758430
 C         2.526464         0.757018         1.073131
 O         2.273328         0.410599        -1.049456
 H        -0.553806         0.048451         0.971133
 H        -0.130661         1.003122        -0.612216
 H        -0.369775        -0.713870        -0.625766
 H         2.540581        -1.690725         1.251708
 H         2.110755        -1.993044        -0.647619
 H         5.390341         0.370832         0.481269
 H         4.923416         0.346858        -1.224662
 H         5.000330         2.645636         0.162243
 H         3.917170         2.421438        -1.224687
 H         2.661572         0.447727         2.097832
