19
Iteration:  3692
 C        -0.189281        -0.032000        -0.035749
 C         1.428646        -0.080851         0.128246
 C         2.343503        -1.263703         0.334863
 C         3.315874        -0.063443         0.014192
 C         4.668128         0.482111        -0.258805
 C         4.431593         1.992501        -0.089064
 O         2.996317         2.144945         0.686766
 C         2.568154         0.839506         0.933165
 O         2.195155         0.446232        -1.050470
 H        -0.726226        -0.126482         0.978791
 H        -0.442467         0.816079        -0.623161
 H        -0.387524        -0.897021        -0.635234
 H         2.335033        -1.624688         1.383478
 H         2.327569        -2.106977        -0.314538
 H         5.384595         0.193632         0.426025
 H         4.891749         0.196595        -1.283078
 H         5.231789         2.308713         0.641976
 H         4.327585         2.675385        -1.029020
 H         2.715915         0.677634         1.988148
