19
Iteration:  2700charge 0 multiplicity 1
 C         0.027857        -0.024728         0.074857
 C         1.422568         0.033463         0.044441
 C         2.250513        -1.338377         0.301801
 C         3.188071        -0.111219         0.015664
 C         4.623283         0.479444        -0.271995
 C         4.301877         2.024604         0.028744
 O         2.936790         2.168404         0.577867
 C         2.575236         0.818370         0.935897
 O         2.359628         0.434984        -1.054471
 H        -0.248203        -0.504405         1.057632
 H        -0.466544         0.895091        -0.158175
 H        -0.336435        -0.796834        -0.611463
 H         2.303120        -1.816580         1.234549
 H         2.170010        -2.125652        -0.482656
 H         5.579531         0.235942         0.310936
 H         4.907147         0.190016        -1.304712
 H         5.148079         2.379571         0.815027
 H         4.375362         2.811524        -0.732021
 H         2.671772         0.561770         1.974263
