19
Iteration:  1788charge 0 multiplicity 1
 C        -0.047404         0.121041         0.108131
 C         1.444076         0.077438         0.028664
 C         2.412380        -1.327504         0.190355
 C         3.253081        -0.090509        -0.051288
 C         4.613000         0.452150        -0.230670
 C         4.111606         2.105022        -0.134626
 O         3.083140         2.120285         0.835660
 C         2.536863         0.799309         1.011261
 O         2.344502         0.264942        -1.119537
 H        -0.265494        -0.374441         1.111523
 H        -0.367422         1.218698         0.201587
 H        -0.497111        -0.316578        -0.780376
 H         2.226119        -1.962702         1.090197
 H         2.283023        -1.890174        -0.711511
 H         5.206127        -0.061149         0.562118
 H         5.101985         0.100910        -1.209566
 H         5.000983         2.722973         0.295604
 H         3.705830         2.298071        -1.128124
 H         2.410943         0.514525         2.086263
