19
Iteration:  2366charge 0 multiplicity 1
 C        -0.013314         0.109525        -0.048627
 C         1.469982         0.012209         0.199183
 C         2.383461        -1.253375         0.327911
 C         3.275918        -0.100701        -0.044473
 C         4.652532         0.540308        -0.189286
 C         4.163699         1.995268        -0.190579
 O         3.036286         2.059577         0.708456
 C         2.619016         0.736445         0.992726
 O         2.160311         0.377024        -1.028593
 H        -0.665793        -0.476690         0.584867
 H        -0.193468         1.168527        -0.049926
 H        -0.230599        -0.287328        -1.088309
 H         2.645532        -1.735482         1.207928
 H         2.120680        -1.997696        -0.442529
 H         5.333404         0.190695         0.599784
 H         5.051348         0.402984        -1.198602
 H         5.101694         2.465267         0.135392
 H         3.810995         2.428155        -1.183498
 H         2.785470         0.435295         2.038309
