19
Iteration:   465charge 0 multiplicity 1
 C        -0.023401        -0.064147         0.152602
 C         1.453041         0.050280        -0.074484
 C         2.280085        -1.207827         0.192568
 C         3.318494        -0.070789        -0.028751
 C         4.654051         0.451618        -0.104822
 C         4.286254         1.966889         0.023755
 O         3.105382         2.110352         0.810217
 C         2.443545         0.847202         0.842538
 O         2.245064         0.421984        -1.210184
 H        -0.176852        -0.358783         1.197781
 H        -0.514201         0.898549         0.056704
 H        -0.394464        -0.835218        -0.523369
 H         2.314572        -1.761262         1.146240
 H         2.031675        -1.890283        -0.660653
 H         5.202930         0.088912         0.716606
 H         5.260389         0.104552        -0.987395
 H         4.997645         2.710395         0.509967
 H         3.981650         2.415785        -0.934370
 H         2.272825         0.493301         1.866827
