19
Iteration:   241
 C         0.022764         0.282279        -0.098608
 C         1.476891        -0.065243         0.098000
 C         2.349147        -1.325179         0.344377
 C         3.327825        -0.135534        -0.165423
 C         4.597619         0.624877        -0.337567
 C         4.200031         2.063035         0.088615
 O         2.985120         2.119312         0.831405
 C         2.604045         0.724385         0.952687
 O         2.167772         0.166476        -1.105476
 H        -0.540590         0.262772         0.819487
 H         0.047267         1.200418        -0.626532
 H        -0.454748        -0.527677        -0.632162
 H         2.469272        -1.549542         1.390799
 H         2.408037        -2.316374        -0.126822
 H         5.235521         0.292929         0.491152
 H         5.031325         0.624358        -1.346765
 H         5.096707         2.389549         0.702331
 H         4.265478         2.689255        -0.832143
 H         2.572677         0.385469         1.996338
