19
Iteration:  1177
 C        -0.087053         0.140463        -0.001263
 C         1.451904        -0.095698         0.124889
 C         2.427135        -1.292798         0.256351
 C         3.260113        -0.003577         0.006367
 C         4.593795         0.450397        -0.224704
 C         4.320784         2.015275         0.006986
 O         2.995085         2.097408         0.640678
 C         2.580302         0.829630         1.004807
 O         2.195635         0.314440        -1.119318
 H        -0.588415         0.379543         0.967513
 H        -0.279147         1.088757        -0.586629
 H        -0.706937        -0.640401        -0.485928
 H         2.607760        -1.861534         1.182433
 H         2.336973        -1.929762        -0.679097
 H         5.275241         0.021817         0.514066
 H         5.053670         0.216195        -1.168697
 H         5.155231         2.513271         0.643830
 H         4.250996         2.601195        -0.907824
 H         2.798590         0.549730         2.131434
