19
Iteration:   900charge 0 multiplicity 1
 C        -0.038655         0.290618         0.050622
 C         1.418271        -0.032316         0.077815
 C         2.380039        -1.307662         0.238209
 C         3.309177        -0.124636        -0.076740
 C         4.640316         0.576734        -0.121235
 C         4.162973         2.061739        -0.075001
 O         3.013241         2.059223         0.756447
 C         2.625336         0.734846         0.983313
 O         2.251308         0.198173        -1.202136
 H        -0.588444        -0.269045         0.827549
 H        -0.096249         1.384537         0.172731
 H        -0.352151         0.004593        -0.993030
 H         2.327459        -1.665393         1.365770
 H         2.212143        -2.226066        -0.409910
 H         4.992164         0.269983         0.849935
 H         5.369386         0.336216        -0.967749
 H         4.857421         2.766641         0.434032
 H         3.906213         2.509224        -1.068562
 H         2.694191         0.425277         2.026585
