19
Iteration:  4034
 C        -0.042871        -0.021980         0.047159
 C         1.501832         0.034343         0.106852
 C         2.356302        -1.234384         0.293097
 C         3.239329        -0.059497        -0.119958
 C         4.618585         0.513497        -0.107815
 C         4.318632         2.011961        -0.039491
 O         3.001805         2.125981         0.771885
 C         2.570387         0.810516         0.868228
 O         2.187350         0.362992        -1.188995
 H        -0.554975        -0.045201         1.049482
 H        -0.466743         0.827295        -0.481348
 H        -0.285861        -0.966684        -0.486598
 H         2.622261        -1.705483         1.283352
 H         2.144127        -1.885787        -0.516806
 H         5.153622         0.161477         0.880201
 H         5.116505         0.052657        -0.920965
 H         5.163138         2.540446         0.487855
 H         4.161270         2.186544        -1.097764
 H         2.694123         0.421044         1.930808
