19
Iteration:  2873
 C        -0.012297         0.087367         0.044833
 C         1.456944        -0.017232         0.002061
 C         2.365026        -1.281787         0.320128
 C         3.241420        -0.078823        -0.039245
 C         4.612556         0.439226        -0.287216
 C         4.167360         2.039478        -0.056647
 O         3.081585         2.133187         0.870306
 C         2.509833         0.867584         0.946956
 O         2.308007         0.302209        -1.160146
 H        -0.298220        -0.231482         1.078049
 H        -0.483462         1.043907        -0.080486
 H        -0.447481        -0.636037        -0.653258
 H         2.287326        -1.858799         1.293617
 H         2.280960        -1.997541        -0.531624
 H         5.427866         0.277848         0.377662
 H         5.028683         0.372253        -1.272652
 H         4.967777         2.509072         0.406863
 H         3.904651         2.470872        -1.053541
 H         2.535458         0.470500         1.939989
