19
Iteration:  3047charge 0 multiplicity 1
 C        -0.089781         0.164304        -0.005493
 C         1.476679         0.035057         0.113525
 C         2.395298        -1.324743         0.295249
 C         3.293861        -0.103783        -0.024789
 C         4.623605         0.525433        -0.230840
 C         4.203280         2.018786        -0.133459
 O         3.019361         2.102844         0.796499
 C         2.591386         0.808071         1.026131
 O         2.258076         0.294093        -1.137503
 H        -0.576985        -0.135798         0.923295
 H        -0.573405         1.041039        -0.395167
 H        -0.305644        -0.687907        -0.684767
 H         2.581004        -1.859008         1.220082
 H         2.143496        -1.971253        -0.488317
 H         5.234401         0.199363         0.493936
 H         4.913003         0.273783        -1.209778
 H         5.094712         2.555719         0.182836
 H         3.984156         2.381582        -1.184883
 H         2.660150         0.431434         2.155241
