19
Iteration:   944
 C        -0.074748         0.041679         0.066623
 C         1.512579         0.089523         0.086582
 C         2.235875        -1.236597         0.220754
 C         3.320140        -0.105946         0.027136
 C         4.641640         0.412979        -0.210205
 C         4.304080         2.021368        -0.000046
 O         2.952342         2.102086         0.645727
 C         2.556415         0.781932         0.987501
 O         2.300139         0.377491        -1.125696
 H        -0.479082        -0.273102         1.051885
 H        -0.568357         0.951812        -0.312771
 H        -0.272223        -0.765738        -0.706302
 H         2.165969        -1.752166         1.296836
 H         2.507196        -1.924189        -0.600692
 H         5.404086         0.206080         0.507032
 H         5.057677         0.263328        -1.267131
 H         5.072331         2.605633         0.568762
 H         4.118444         2.461830        -1.044173
 H         2.525257         0.552014         2.080212
