19
Iteration:  4777
 C        -0.047168         0.144954        -0.012014
 C         1.428956        -0.021284         0.088221
 C         2.508803        -1.334078         0.325166
 C         3.276122        -0.019509        -0.031033
 C         4.680294         0.419836        -0.151671
 C         4.247975         1.961855        -0.068139
 O         2.927517         2.157695         0.603605
 C         2.480022         0.859740         0.991512
 O         2.271219         0.274250        -1.068752
 H        -0.472361         0.229722         0.992684
 H        -0.161891         1.152891        -0.535166
 H        -0.433063        -0.677429        -0.608678
 H         2.566169        -1.816598         1.346782
 H         2.320593        -2.097566        -0.399328
 H         5.217841         0.191049         0.732999
 H         5.128570         0.296553        -1.134276
 H         4.888902         2.681080         0.330319
 H         3.887309         2.348855        -1.046680
 H         2.500702         0.694681         2.092301
