19
Iteration:  3410charge 0 multiplicity 1
 C        -0.011237         0.272839        -0.004280
 C         1.524998        -0.019951         0.071240
 C         2.413358        -1.312647         0.345353
 C         3.395898        -0.095047         0.023927
 C         4.661989         0.423754        -0.275247
 C         4.235512         2.149650        -0.006173
 O         2.913794         2.180209         0.763589
 C         2.522545         0.761102         0.945945
 O         2.127851         0.094135        -1.214234
 H        -0.567263        -0.124390         0.910780
 H        -0.137682         1.349271        -0.082364
 H        -0.423490        -0.175100        -0.905351
 H         2.608124        -1.579855         1.380094
 H         2.311251        -2.041039        -0.377834
 H         5.434759         0.090451         0.588834
 H         5.191997         0.205270        -1.235693
 H         5.029497         2.653642         0.643266
 H         3.962597         2.615618        -0.967983
 H         2.523951         0.506901         2.078884
