19
Iteration:   923
 C        -0.033203         0.162209         0.086002
 C         1.448734        -0.044507        -0.013651
 C         2.395416        -1.313330         0.286679
 C         3.285323        -0.035096        -0.024913
 C         4.628965         0.461403        -0.154253
 C         4.270843         1.955874        -0.089256
 O         2.974178         2.109372         0.749359
 C         2.418237         0.829602         0.925275
 O         2.345109         0.342573        -1.145985
 H        -0.176655        -0.342510         1.082658
 H        -0.142950         1.257055         0.194130
 H        -0.678635        -0.278319        -0.727469
 H         2.596799        -1.890455         1.335007
 H         2.158895        -2.075338        -0.505493
 H         5.262262         0.103622         0.646613
 H         5.033297         0.377948        -1.241470
 H         5.059947         2.505690         0.444360
 H         3.970319         2.522393        -0.976202
 H         2.360741         0.450372         1.934498
