19
Iteration:  2007
 C        -0.078527         0.068185        -0.022283
 C         1.430995        -0.058693         0.163418
 C         2.401958        -1.254838         0.289551
 C         3.261173        -0.065130        -0.146184
 C         4.687540         0.509658        -0.279124
 C         4.224014         2.040203        -0.072326
 O         3.097078         2.143100         0.830495
 C         2.569428         0.801735         1.015770
 O         2.163492         0.282107        -1.122809
 H        -0.691037        -0.489815         0.660012
 H        -0.336899         1.111167         0.088561
 H        -0.336613        -0.351751        -1.006965
 H         2.410383        -1.529221         1.292671
 H         2.227351        -2.095793        -0.367540
 H         5.234673         0.116681         0.560365
 H         5.056506         0.455659        -1.272517
 H         5.128923         2.714791         0.286313
 H         3.915509         2.411603        -1.032194
 H         2.786968         0.414095         2.121243
