19
Iteration:   763charge 0 multiplicity 1
 C        -0.057942         0.142032         0.112893
 C         1.446820         0.023342         0.074999
 C         2.387560        -1.284596         0.162013
 C         3.205096        -0.033920        -0.032839
 C         4.653612         0.478495        -0.186563
 C         4.318836         1.967939         0.097710
 O         2.960129         2.153017         0.633081
 C         2.481822         0.742472         0.940531
 O         2.345170         0.295867        -1.142152
 H        -0.355871         0.015945         1.159305
 H        -0.544993         1.071864        -0.137288
 H        -0.435447        -0.699306        -0.420278
 H         2.396469        -1.888209         1.060910
 H         2.497106        -1.812031        -0.736587
 H         5.320257        -0.062872         0.509242
 H         4.866717         0.314590        -1.192733
 H         4.960634         2.574540         0.784552
 H         4.292202         2.572357        -0.835694
 H         2.412912         0.358534         1.958580
