19
Iteration:   788charge 0 multiplicity 1
 C        -0.051981         0.049627         0.060283
 C         1.443256        -0.012703         0.021459
 C         2.336255        -1.300196         0.242679
 C         3.230593        -0.117999        -0.088896
 C         4.700114         0.469330        -0.135684
 C         4.328654         2.047266         0.004253
 O         3.065295         2.159322         0.761743
 C         2.508358         0.742464         0.959537
 O         2.194257         0.392458        -1.229894
 H        -0.373433         0.151772         1.101224
 H        -0.456721         0.979753        -0.329832
 H        -0.488380        -0.861688        -0.353815
 H         2.437766        -1.528608         1.332140
 H         2.182139        -2.170043        -0.491222
 H         5.203315         0.151643         0.798170
 H         5.326664         0.286746        -0.983523
 H         5.042134         2.614898         0.638319
 H         4.215741         2.653442        -0.904506
 H         2.338551         0.416648         1.946030
