19
Iteration:  1854
 C         0.007625         0.068193         0.041817
 C         1.477148        -0.035118         0.139638
 C         2.327298        -1.269333         0.260427
 C         3.278563        -0.057137        -0.077822
 C         4.608382         0.522008        -0.404663
 C         4.286600         1.983041         0.013823
 O         2.989120         2.106164         0.717531
 C         2.488703         0.838423         1.042704
 O         2.309022         0.303830        -1.078103
 H        -0.533865        -0.311719         0.951565
 H        -0.345956         1.119554        -0.079199
 H        -0.489943        -0.494306        -0.728969
 H         2.307947        -1.771344         1.218137
 H         2.075783        -1.861552        -0.582002
 H         5.451514         0.138844         0.167864
 H         5.060869         0.554898        -1.417328
 H         4.891243         2.395310         0.863569
 H         4.103749         2.455655        -0.896861
 H         2.543306         0.666822         2.117065
