19
Iteration:  4453
 C        -0.008148         0.192034        -0.031063
 C         1.469969        -0.006615         0.097975
 C         2.409020        -1.328287         0.320572
 C         3.346200        -0.152537         0.051945
 C         4.650751         0.422575        -0.202947
 C         4.063807         1.978728        -0.146672
 O         2.863638         2.126274         0.642895
 C         2.539727         0.805104         1.038164
 O         2.390731         0.385860        -1.061519
 H        -0.417298        -0.138571         0.888986
 H        -0.140063         1.268422        -0.148774
 H        -0.361111        -0.486696        -0.765681
 H         2.277785        -1.604228         1.404628
 H         2.526358        -2.102855        -0.480664
 H         5.596412         0.289748         0.441614
 H         4.923197         0.232424        -1.368211
 H         4.863835         2.602191         0.347098
 H         3.993722         2.270748        -1.230421
 H         2.532319         0.596906         2.111547
