19
Iteration:  4535charge 0 multiplicity 1
 C        -0.042925        -0.052060         0.045195
 C         1.464624        -0.022706         0.038095
 C         2.344097        -1.242999         0.389921
 C         3.210828        -0.051514         0.089384
 C         4.555123         0.496523        -0.327681
 C         4.384861         2.050431         0.168278
 O         2.970600         2.180450         0.537210
 C         2.540764         0.956170         0.919542
 O         2.293578         0.196168        -1.172046
 H        -0.447096        -0.174368         1.120502
 H        -0.431342         0.961718        -0.315721
 H        -0.645697        -0.699833        -0.668683
 H         2.485701        -1.735649         1.336122
 H         2.370130        -2.095695        -0.373798
 H         5.363805         0.033930         0.258226
 H         4.753677         0.372342        -1.358890
 H         5.062761         2.274372         0.971894
 H         4.692354         2.610427        -0.689561
 H         2.601425         0.876538         2.031272
