19
Iteration:  1673
 C        -0.008566         0.010126         0.097655
 C         1.456196         0.094051         0.128878
 C         2.292747        -1.190279         0.301066
 C         3.263462        -0.132160        -0.090953
 C         4.644938         0.476336        -0.207303
 C         4.252893         2.051239        -0.020149
 O         3.050336         2.043136         0.748904
 C         2.564223         0.770717         0.928072
 O         2.282571         0.351906        -1.224740
 H        -0.227713        -0.364862         1.068965
 H        -0.667738         0.818426         0.005572
 H        -0.338783        -0.708851        -0.649983
 H         2.374222        -1.665784         1.221422
 H         1.789750        -1.723038        -0.508482
 H         5.409894         0.230245         0.494709
 H         5.033176         0.382558        -1.186143
 H         4.903191         2.728145         0.545200
 H         3.783808         2.483778        -0.956955
 H         2.553403         0.591945         1.963258
