19
Iteration:    13charge 0 multiplicity 1
 C         0.029791         0.198530         0.111648
 C         1.489413        -0.051812         0.051053
 C         2.201849        -1.410832         0.271001
 C         3.243835        -0.167059        -0.115256
 C         4.619023         0.611600        -0.171015
 C         4.224697         2.092369        -0.103911
 O         3.021446         2.081821         0.708839
 C         2.493940         0.753232         1.045762
 O         2.366439         0.343279        -1.199873
 H        -0.215297        -0.026625         1.185982
 H        -0.323007         1.181025        -0.183859
 H        -0.450463        -0.620534        -0.502068
 H         2.353718        -1.662183         1.347521
 H         2.072336        -2.243196        -0.377228
 H         5.153722         0.306156         0.834996
 H         5.280338         0.400165        -0.953455
 H         4.963240         2.619557         0.486365
 H         4.087826         2.540606        -1.044164
 H         2.764555         0.443942         2.016500
