19
Iteration:  2592
 C         0.081334         0.227438         0.020699
 C         1.531691        -0.061057         0.127273
 C         2.320762        -1.334249         0.271095
 C         3.318248        -0.056511         0.037048
 C         4.661953         0.499573        -0.277479
 C         4.039327         1.990221        -0.192204
 O         2.894802         2.044370         0.695196
 C         2.508132         0.732799         1.027972
 O         2.414858         0.388178        -1.043400
 H        -0.269095        -0.027818         1.081272
 H        -0.096315         1.303665        -0.003255
 H        -0.517338        -0.322526        -0.778271
 H         2.058784        -1.802735         1.246283
 H         2.176164        -2.013750        -0.649638
 H         5.357542         0.502811         0.592036
 H         5.094112         0.229067        -1.253755
 H         4.880076         2.578111         0.222332
 H         3.708041         2.325730        -1.108959
 H         2.643206         0.379584         2.087582
