19
Iteration:   193
 C        -0.015191         0.179942         0.105327
 C         1.495985         0.003681         0.003784
 C         2.269189        -1.331539         0.211664
 C         3.333397        -0.147511        -0.009217
 C         4.724926         0.438554        -0.176704
 C         4.126919         2.080270        -0.007844
 O         2.859057         2.045108         0.596327
 C         2.594217         0.753649         1.000680
 O         2.373091         0.414709        -1.083732
 H        -0.285639        -0.120571         1.161015
 H        -0.150570         1.310831         0.021800
 H        -0.662830        -0.425546        -0.570770
 H         2.213836        -1.869258         1.197440
 H         2.095524        -2.116952        -0.532377
 H         5.288510         0.135771         0.740672
 H         5.289179         0.301598        -1.166164
 H         4.881894         2.726421         0.406912
 H         4.095978         2.449091        -1.046447
 H         2.689470         0.580157         2.083200
