19
Iteration:  1514
 C        -0.112145         0.145739         0.060458
 C         1.492208         0.041238         0.100564
 C         2.260439        -1.314977         0.278218
 C         3.403904        -0.192976        -0.037128
 C         4.743224         0.571279        -0.233529
 C         4.114459         2.030046        -0.088432
 O         2.997600         2.064466         0.736186
 C         2.603268         0.712666         0.913392
 O         2.289574         0.396792        -1.074053
 H        -0.413799        -0.067744         1.069819
 H        -0.358874         1.095242        -0.394568
 H        -0.396719        -0.679780        -0.595925
 H         2.157183        -1.860149         1.210409
 H         2.069362        -2.043400        -0.620528
 H         5.325941         0.313156         0.707244
 H         5.241874         0.485724        -1.173427
 H         4.807877         2.700395         0.352333
 H         3.894978         2.385559        -1.061485
 H         2.541062         0.429389         2.026275
