19
Iteration:  1371charge 0 multiplicity 1
 C         0.085901         0.215587         0.050405
 C         1.512883        -0.007802         0.193019
 C         2.287645        -1.337994         0.258708
 C         3.249511        -0.047492        -0.093302
 C         4.639444         0.552408        -0.257043
 C         4.286665         2.058426         0.021100
 O         2.868417         2.059300         0.679923
 C         2.573846         0.689358         0.901439
 O         2.245607         0.279741        -1.099953
 H        -0.298391         0.306354         1.060065
 H        -0.120497         1.139182        -0.476789
 H        -0.331998        -0.658304        -0.479383
 H         2.385256        -1.814781         1.278667
 H         2.274904        -2.002719        -0.649739
 H         5.187133         0.189381         0.676884
 H         5.155490         0.383650        -1.207834
 H         4.931371         2.652335         0.647076
 H         4.122643         2.578860        -0.922839
 H         2.755985         0.381568         1.935619
