19
Iteration:   890
 C        -0.033499         0.312467        -0.031554
 C         1.561964        -0.016598         0.103311
 C         2.296177        -1.336024         0.322336
 C         3.323475        -0.116182        -0.122198
 C         4.700102         0.567322        -0.101500
 C         4.117783         2.045932        -0.055816
 O         2.978612         2.059805         0.764048
 C         2.609630         0.712601         0.942777
 O         2.208769         0.208208        -1.143968
 H        -0.603051        -0.242859         0.758870
 H        -0.237936         1.390447         0.163392
 H        -0.584476         0.069681        -0.997458
 H         2.661911        -1.869119         1.313118
 H         2.044300        -1.955498        -0.585991
 H         5.411375         0.386545         0.668178
 H         5.386429         0.620950        -1.039829
 H         4.952207         2.663918         0.281657
 H         3.784568         2.290650        -1.071709
 H         2.800205         0.367879         1.937029
