19
Iteration:   861charge 0 multiplicity 1
 C         0.030133         0.268911        -0.098888
 C         1.541878        -0.041703         0.095287
 C         2.319309        -1.315216         0.266709
 C         3.299098        -0.109229         0.039650
 C         4.566500         0.493300        -0.290291
 C         4.059213         2.049983        -0.128508
 O         2.990845         2.012044         0.772065
 C         2.558260         0.708864         1.106810
 O         2.380420         0.333376        -1.071721
 H        -0.717014        -0.074116         0.652564
 H        -0.177693         1.345703        -0.054599
 H        -0.353704        -0.109859        -1.045052
 H         2.399063        -1.639736         1.277256
 H         2.255112        -2.047541        -0.458307
 H         5.358756         0.409499         0.510094
 H         4.904893         0.310513        -1.328702
 H         4.947801         2.578296         0.268114
 H         3.861259         2.555866        -1.091154
 H         2.616217         0.530961         2.216440
