19
Iteration:   396charge 0 multiplicity 1
 C         0.093549         0.303505        -0.136705
 C         1.505394        -0.047974         0.120264
 C         2.330692        -1.350316         0.317483
 C         3.328598        -0.160914         0.019053
 C         4.519313         0.625926        -0.397151
 C         4.085278         2.008198         0.017736
 O         2.927292         2.002111         0.791671
 C         2.611191         0.683860         1.026575
 O         2.330656         0.340603        -1.072753
 H        -0.456414         0.392760         0.824227
 H         0.049278         1.392582        -0.351265
 H        -0.431233        -0.316554        -0.864740
 H         2.364164        -1.853223         1.336547
 H         2.267971        -2.069261        -0.491429
 H         5.519431         0.324828         0.091985
 H         4.814584         0.413463        -1.412493
 H         5.043292         2.464541         0.567870
 H         4.039045         2.635159        -0.885070
 H         2.496154         0.430368         2.116363
