19
Iteration:   210charge 0 multiplicity 1
 C        -0.027599         0.309590         0.106562
 C         1.490469         0.007803         0.071704
 C         2.406850        -1.340775         0.215014
 C         3.345986        -0.103030         0.022570
 C         4.605181         0.573359        -0.232925
 C         4.205724         1.950942        -0.025915
 O         2.890035         2.037306         0.666920
 C         2.421257         0.724928         0.937228
 O         2.394233         0.281078        -1.111104
 H        -0.297801         0.219088         1.154924
 H        -0.233326         1.357444        -0.124755
 H        -0.478045        -0.427457        -0.544663
 H         2.497660        -1.846959         1.177932
 H         2.447314        -2.069589        -0.632638
 H         5.482914         0.321707         0.368666
 H         4.923396         0.358182        -1.214423
 H         4.882255         2.524048         0.695722
 H         4.132566         2.594309        -0.903499
 H         2.243130         0.448765         2.030600
