19
Iteration:   147charge 0 multiplicity 1
 C        -0.131039         0.101353        -0.080181
 C         1.403050        -0.008427         0.015318
 C         2.449813        -1.287383         0.302024
 C         3.239200        -0.020802        -0.011183
 C         4.685021         0.479279        -0.185890
 C         4.225381         1.992447        -0.122692
 O         3.137505         2.152426         0.877632
 C         2.552864         0.791199         0.939830
 O         2.192907         0.309199        -1.108531
 H        -0.521864        -0.641773         0.700655
 H        -0.571626         1.122032         0.167049
 H        -0.673633        -0.381999        -0.957896
 H         2.611292        -1.717430         1.327282
 H         2.510662        -2.150248        -0.441687
 H         5.312282         0.150420         0.733968
 H         4.874513         0.075508        -1.188708
 H         5.017562         2.701682         0.199768
 H         4.011534         2.397311        -1.101077
 H         2.577835         0.545831         2.007205
