19
Iteration:  1762
 C         0.025477         0.220370         0.080493
 C         1.449078        -0.029775         0.077677
 C         2.300105        -1.283937         0.323973
 C         3.329484        -0.139955        -0.038379
 C         4.673915         0.595634        -0.294624
 C         4.117935         2.091018        -0.106687
 O         2.976330         2.010067         0.818812
 C         2.577075         0.656677         0.967107
 O         2.323046         0.350019        -1.151386
 H        -0.372375        -0.016970         1.050660
 H        -0.106673         1.246811        -0.171133
 H        -0.248957        -0.336621        -0.810346
 H         2.047152        -1.552747         1.281772
 H         2.073871        -2.140022        -0.335450
 H         5.469753         0.212599         0.278596
 H         4.937207         0.347613        -1.276023
 H         4.911691         2.594893         0.374931
 H         3.697103         2.334270        -1.098246
 H         2.651156         0.280114         1.950484
