19
Iteration:   463charge 0 multiplicity 1
 C        -0.011523        -0.060272         0.136047
 C         1.442434         0.051317        -0.069909
 C         2.281926        -1.203973         0.185172
 C         3.324020        -0.058521        -0.038220
 C         4.641684         0.439973        -0.101314
 C         4.294868         1.975822         0.007876
 O         3.108122         2.101125         0.814998
 C         2.437890         0.831454         0.843213
 O         2.237388         0.418179        -1.195596
 H        -0.068272        -0.318968         1.213137
 H        -0.520847         0.920476         0.013281
 H        -0.431416        -0.825589        -0.508274
 H         2.337038        -1.715148         1.212330
 H         2.129595        -1.886366        -0.645414
 H         5.255319         0.121943         0.773188
 H         5.176663         0.066889        -1.023366
 H         4.961013         2.763709         0.572332
 H         3.977179         2.410852        -0.929152
 H         2.247456         0.504337         1.885925
