19
Iteration:   774charge 0 multiplicity 1
 C        -0.086996         0.059389         0.126527
 C         1.424302        -0.007445         0.026279
 C         2.370333        -1.224995         0.191310
 C         3.335921        -0.028865        -0.054251
 C         4.657574         0.509789        -0.158253
 C         4.293585         1.937800         0.093525
 O         3.005473         2.058377         0.717184
 C         2.465236         0.873729         0.847598
 O         2.260507         0.316669        -1.145606
 H        -0.362033         0.077680         1.176810
 H        -0.261951         1.015731        -0.361289
 H        -0.654063        -0.682793        -0.393894
 H         2.435845        -1.861783         1.059042
 H         2.272948        -1.775320        -0.700514
 H         5.322765         0.049124         0.609913
 H         5.125925         0.327278        -1.082216
 H         5.101099         2.427939         0.695725
 H         4.211951         2.332722        -0.941365
 H         2.553842         0.710246         1.951665
