19
Iteration:  2381
 C        -0.054290         0.137725         0.035696
 C         1.466419        -0.015020         0.251179
 C         2.405025        -1.342013         0.297117
 C         3.252618        -0.095435        -0.141369
 C         4.627251         0.505000        -0.303922
 C         4.236403         1.992419        -0.120214
 O         2.942047         2.087507         0.678285
 C         2.578137         0.779054         1.035621
 O         2.312309         0.378732        -1.087672
 H        -0.705119        -0.251830         0.862638
 H        -0.358047         1.234305         0.006380
 H        -0.252192        -0.279672        -0.997684
 H         2.451908        -1.730841         1.394813
 H         2.223583        -2.077548        -0.446523
 H         5.105050         0.261523         0.671677
 H         5.303562         0.250787        -1.176104
 H         4.753895         2.736277         0.456630
 H         4.096473         2.326431        -1.072188
 H         2.696768         0.582676         2.234052
