19
Iteration:  2524charge 0 multiplicity 1
 C         0.001100         0.023683         0.081831
 C         1.443708         0.049927         0.000229
 C         2.314142        -1.258717         0.413918
 C         3.233041        -0.106493        -0.044906
 C         4.672287         0.566008        -0.331938
 C         4.228266         1.982255         0.009239
 O         3.059904         2.141917         0.743568
 C         2.558128         0.815244         0.952118
 O         2.252751         0.275209        -1.187965
 H        -0.375411        -0.565653         1.006560
 H        -0.486235         1.056433         0.118538
 H        -0.347539        -0.484525        -0.802753
 H         2.336757        -1.572138         1.448820
 H         2.143217        -2.060955        -0.381973
 H         5.362501         0.096564         0.384994
 H         4.837751         0.412347        -1.396493
 H         5.012890         2.482519         0.685112
 H         4.164008         2.528052        -0.908435
 H         2.468132         0.626181         2.020669
