19
Iteration:   820charge 0 multiplicity 1
 C        -0.053347         0.065739        -0.082170
 C         1.418354         0.033379         0.172576
 C         2.303930        -1.192781         0.268821
 C         3.295926        -0.140970        -0.104002
 C         4.679396         0.512853        -0.229817
 C         4.185486         2.007268        -0.065853
 O         3.096957         2.094951         0.831112
 C         2.534210         0.750688         1.030628
 O         2.272192         0.338592        -1.150073
 H        -0.602329        -0.049797         0.847753
 H        -0.179663         1.045028        -0.543560
 H        -0.335093        -0.712483        -0.760384
 H         2.475560        -1.672386         1.235137
 H         2.046464        -1.947362        -0.544915
 H         5.404146         0.175804         0.558167
 H         5.173178         0.255801        -1.125778
 H         4.970026         2.577840         0.496506
 H         3.879595         2.450080        -1.047025
 H         2.420756         0.561479         2.144193
