19
Iteration:  4576charge 0 multiplicity 1
 C        -0.023611        -0.082056        -0.175572
 C         1.413663         0.021411         0.205558
 C         2.383991        -1.166566         0.504917
 C         3.247381        -0.094648        -0.065417
 C         4.534628         0.486096        -0.390136
 C         4.380899         1.997923         0.156208
 O         2.937146         2.106456         0.513087
 C         2.655706         0.927779         0.980072
 O         2.198592         0.327424        -1.032247
 H        -0.651492         0.071029         0.704359
 H        -0.132104         0.687039        -0.883836
 H        -0.182372        -1.054879        -0.641700
 H         2.524973        -1.537416         1.545279
 H         2.201360        -2.020990        -0.165930
 H         5.470704        -0.095568        -0.031448
 H         4.802941         0.456085        -1.508562
 H         4.953896         2.001463         1.134667
 H         4.518002         2.881111        -0.433351
 H         2.726514         0.650117         2.031974
