19
Iteration:  4167charge 0 multiplicity 1
 C         0.078881         0.189118         0.148892
 C         1.474484         0.029316        -0.061309
 C         2.362783        -1.214621         0.284321
 C         3.266846        -0.057081        -0.016545
 C         4.611299         0.506328        -0.135070
 C         4.124506         1.971387        -0.097607
 O         2.995481         2.089772         0.834092
 C         2.446082         0.772574         0.895587
 O         2.378587         0.169809        -1.246308
 H        -0.110352        -0.101375         1.220947
 H        -0.227321         1.243957         0.084809
 H        -0.610450        -0.381636        -0.457374
 H         2.433931        -1.531560         1.342734
 H         2.454844        -2.092733        -0.405960
 H         5.323022         0.131959         0.763750
 H         5.115475         0.510271        -1.119460
 H         4.753449         2.816646         0.027854
 H         3.694702         2.343672        -1.018289
 H         2.336248         0.589510         1.966663
