19
Iteration:  2257
 C        -0.031319         0.219504         0.120646
 C         1.481772        -0.012257         0.157064
 C         2.424038        -1.361846         0.222952
 C         3.372751        -0.125182        -0.002293
 C         4.675665         0.556199        -0.278009
 C         4.273893         1.968730         0.018921
 O         2.846357         2.089541         0.566980
 C         2.547545         0.779785         0.892277
 O         2.187995         0.325859        -1.064316
 H        -0.287707         0.340479         1.200334
 H        -0.283902         1.182366        -0.341997
 H        -0.685729        -0.562338        -0.441192
 H         2.522269        -1.668521         1.296817
 H         2.390475        -2.206331        -0.604828
 H         5.365883         0.058039         0.450836
 H         5.177377         0.338705        -1.213269
 H         4.933160         2.348800         0.766775
 H         4.301878         2.672061        -0.776257
 H         2.600504         0.602700         2.069643
