19
Iteration:  3434
 C         0.048325         0.296145         0.074164
 C         1.496550        -0.024461         0.060393
 C         2.297819        -1.362992         0.416967
 C         3.300642        -0.085100        -0.031860
 C         4.572466         0.621684        -0.317791
 C         4.262461         2.018495         0.048410
 O         2.862102         2.057188         0.583743
 C         2.486097         0.728421         0.929486
 O         2.401333         0.186728        -1.112211
 H        -0.420430        -0.073007         1.050150
 H        -0.059430         1.368132         0.017692
 H        -0.523449        -0.125028        -0.754976
 H         2.532010        -1.702000         1.417838
 H         2.162369        -2.069494        -0.354241
 H         5.429697         0.198269         0.348379
 H         4.920782         0.624054        -1.325805
 H         4.976412         2.575434         0.793075
 H         4.091718         2.565150        -0.862695
 H         2.624562         0.473427         1.997099
