19
Iteration:   246
 C         0.025696         0.245050        -0.104722
 C         1.465017         0.000782         0.128496
 C         2.360062        -1.347746         0.378648
 C         3.296449        -0.117585        -0.156063
 C         4.635540         0.681742        -0.345928
 C         4.223174         2.064322         0.086360
 O         3.003268         2.067687         0.836299
 C         2.582504         0.710594         0.918017
 O         2.160492         0.176004        -1.117092
 H        -0.666982         0.241557         0.773978
 H        -0.021486         1.178271        -0.753151
 H        -0.476504        -0.536379        -0.735611
 H         2.544926        -1.476984         1.483425
 H         2.208224        -2.329592        -0.125678
 H         5.226516         0.321627         0.513761
 H         5.042206         0.566881        -1.358240
 H         5.106100         2.294585         0.709552
 H         4.185007         2.659953        -0.823260
 H         2.689850         0.382751         1.986773
