19
Iteration:   866
 C         0.021226         0.298316        -0.062013
 C         1.531806        -0.026429         0.123831
 C         2.322826        -1.334048         0.256133
 C         3.293658        -0.119932         0.031506
 C         4.631345         0.506578        -0.296739
 C         4.102360         2.058612        -0.138469
 O         2.952893         2.017842         0.781543
 C         2.554642         0.710247         1.083376
 O         2.356420         0.317690        -1.082958
 H        -0.693529        -0.199410         0.596371
 H        -0.140941         1.385579        -0.145654
 H        -0.155873        -0.109575        -1.086342
 H         2.268296        -1.597129         1.359086
 H         2.157550        -2.222161        -0.461080
 H         5.383897         0.302171         0.453729
 H         5.152599         0.383221        -1.251466
 H         4.876704         2.685504         0.362659
 H         3.671802         2.483071        -1.081013
 H         2.562923         0.447285         2.146605
