19
Iteration:  3715
 C        -0.080036        -0.081312         0.080638
 C         1.433214         0.084421         0.017286
 C         2.321753        -1.205739         0.348619
 C         3.205862        -0.010631        -0.078035
 C         4.588745         0.450809        -0.273741
 C         4.383114         2.003062         0.091879
 O         3.066307         2.134045         0.689673
 C         2.499967         0.908825         0.954231
 O         2.290566         0.259209        -1.187970
 H        -0.176485        -0.417716         1.167597
 H        -0.591494         0.844740        -0.212837
 H        -0.338075        -0.909631        -0.600626
 H         2.556917        -1.569740         1.373305
 H         2.076888        -2.093407        -0.319721
 H         5.263678        -0.029247         0.353193
 H         4.876121         0.388065        -1.266569
 H         5.250349         2.432726         0.705417
 H         4.179344         2.559780        -0.900847
 H         2.485333         0.768346         2.012126
