19
Iteration:  2608
 C        -0.007762         0.233232         0.043590
 C         1.497450         0.063683         0.057628
 C         2.307793        -1.334215         0.277625
 C         3.347103        -0.250238        -0.020019
 C         4.613230         0.595732        -0.248610
 C         4.061213         2.037528        -0.148944
 O         2.942158         2.055861         0.765024
 C         2.561834         0.741345         1.039159
 O         2.431658         0.284439        -1.078672
 H        -0.412779         0.042474         0.994239
 H        -0.246247         1.256773        -0.291174
 H        -0.420324        -0.449151        -0.671265
 H         2.573230        -1.753711         1.267753
 H         2.171539        -2.113517        -0.410592
 H         5.462910         0.245923         0.296681
 H         4.966175         0.497802        -1.287234
 H         4.724587         2.759940         0.218145
 H         3.737722         2.373782        -1.209614
 H         2.420280         0.697338         2.146704
