19
Iteration:  4913charge 0 multiplicity 1
 C        -0.040264         0.016746        -0.058442
 C         1.419505        -0.041086         0.068946
 C         2.297639        -1.300878         0.408759
 C         3.267079        -0.076547         0.040836
 C         4.670889         0.492842        -0.263814
 C         4.235490         2.011618        -0.138278
 O         3.047781         2.179281         0.721949
 C         2.470393         0.844171         0.980584
 O         2.371405         0.370228        -1.072432
 H        -0.586189        -0.172630         0.945447
 H        -0.453681         0.914266        -0.569766
 H        -0.351361        -0.876499        -0.760628
 H         2.363430        -1.634122         1.458416
 H         2.152531        -2.240416        -0.211546
 H         5.523236         0.243109         0.356803
 H         4.825179         0.134826        -1.253775
 H         5.131616         2.523160         0.228045
 H         4.047497         2.459602        -1.074239
 H         2.321169         0.556174         2.064845
