19
Iteration:  3985
 C         0.078035         0.226355         0.005920
 C         1.529576        -0.019981         0.131989
 C         2.338889        -1.305119         0.274187
 C         3.255797        -0.158888         0.039683
 C         4.595193         0.505052        -0.302326
 C         4.123091         2.097313         0.031362
 O         2.890888         2.119701         0.656114
 C         2.525068         0.767268         0.995660
 O         2.372649         0.210868        -1.085173
 H        -0.472280         0.006635         0.911587
 H        -0.110428         1.269958        -0.257659
 H        -0.283210        -0.426351        -0.759979
 H         2.251015        -1.782696         1.241435
 H         2.464694        -1.804735        -0.727025
 H         5.531223         0.193298         0.129606
 H         4.761639         0.384792        -1.452460
 H         4.821936         2.555540         0.694054
 H         4.300314         2.509104        -0.988057
 H         2.690672         0.509483         1.996325
