19
Iteration:  1448charge 0 multiplicity 1
 C        -0.150394         0.051993        -0.004180
 C         1.432378         0.025639         0.175977
 C         2.370145        -1.192185         0.363023
 C         3.244773        -0.074989        -0.153412
 C         4.642694         0.571536        -0.249511
 C         4.381027         2.083618         0.015926
 O         3.012468         2.057522         0.705230
 C         2.631450         0.713168         0.902737
 O         2.178425         0.268113        -1.100606
 H        -0.729950        -0.554682         0.671429
 H        -0.483772         1.074856        -0.034165
 H        -0.350586        -0.398161        -1.005806
 H         2.503796        -1.755537         1.293529
 H         2.111408        -1.914388        -0.527822
 H         5.323526         0.148851         0.598610
 H         5.174005         0.433169        -1.156591
 H         5.019316         2.489862         0.745228
 H         4.364719         2.733496        -0.793344
 H         2.908067         0.440115         1.962514
