19
Iteration:  2315
 C        -0.047490         0.095231         0.045060
 C         1.473560         0.104723         0.056545
 C         2.308919        -1.265728         0.360023
 C         3.293687        -0.075054        -0.002436
 C         4.668199         0.509772        -0.333817
 C         4.123136         2.088743        -0.136016
 O         3.086641         2.023628         0.843080
 C         2.529806         0.771491         0.958768
 O         2.338074         0.278523        -1.149417
 H        -0.422784        -0.294947         1.015450
 H        -0.443709         1.124792        -0.090019
 H        -0.436318        -0.614163        -0.735424
 H         2.152376        -1.628316         1.484721
 H         2.301248        -2.107589        -0.307501
 H         5.324299         0.044899         0.405649
 H         4.925761         0.331148        -1.417507
 H         4.907857         2.765399         0.213940
 H         3.753280         2.348464        -1.068510
 H         2.477073         0.500108         2.060030
