19
Iteration:  4674
 C        -0.118157         0.179106        -0.013099
 C         1.470943        -0.015768         0.182221
 C         2.427999        -1.377007         0.298527
 C         3.347569        -0.119916         0.013411
 C         4.645613         0.546362        -0.053917
 C         4.213753         1.973584        -0.182662
 O         2.901023         2.124633         0.577623
 C         2.594553         0.804041         0.989847
 O         2.286843         0.330395        -1.107001
 H        -0.625697        -0.221860         0.834686
 H        -0.241598         1.194103        -0.078474
 H        -0.434666        -0.234863        -0.939843
 H         2.430348        -1.855632         1.285313
 H         2.265083        -2.135846        -0.503012
 H         5.301397         0.098616         0.785613
 H         5.302400         0.244290        -0.936984
 H         4.701816         2.833246         0.386447
 H         4.098860         2.225371        -1.231483
 H         2.730756         0.740973         2.088571
