19
Iteration:  4547
 C        -0.072197        -0.064518        -0.056059
 C         1.398074        -0.056001         0.103030
 C         2.342665        -1.308804         0.390236
 C         3.276860        -0.080650         0.075014
 C         4.599743         0.521437        -0.340191
 C         4.469763         2.013019         0.117945
 O         3.005313         2.249233         0.490642
 C         2.483288         0.936547         0.929105
 O         2.256960         0.251688        -1.006299
 H        -0.484268        -0.128373         1.009508
 H        -0.405066         0.932029        -0.531083
 H        -0.332213        -1.028091        -0.583643
 H         2.286379        -1.818231         1.328481
 H         2.274296        -1.870117        -0.605786
 H         5.506108         0.021703        -0.073378
 H         4.531989         0.498656        -1.382615
 H         5.004983         2.244003         1.043280
 H         4.571270         2.828991        -0.595970
 H         2.396012         0.829363         2.045971
