19
Iteration:  4738charge 0 multiplicity 1
 C        -0.008648         0.055906        -0.200484
 C         1.469884         0.050234         0.115790
 C         2.249702        -1.236748         0.509535
 C         3.258237        -0.103839        -0.018348
 C         4.701452         0.599555        -0.368618
 C         4.131620         2.080529        -0.146342
 O         3.102444         2.050937         0.842745
 C         2.540163         0.849934         1.018461
 O         2.333017         0.195214        -1.061294
 H        -0.693339        -0.175765         0.655010
 H        -0.460015         0.952132        -0.620048
 H        -0.227567        -0.849874        -0.845631
 H         2.102232        -1.396085         1.607514
 H         2.148794        -2.019133        -0.255006
 H         5.436136         0.123829         0.354754
 H         5.073957         0.337910        -1.385267
 H         4.967140         2.821802         0.171595
 H         3.751165         2.191491        -1.154403
 H         2.358274         0.581238         2.093223
