19
Iteration:  2329
 C        -0.065215         0.080299         0.007264
 C         1.414595        -0.010618         0.085062
 C         2.304604        -1.197552         0.322799
 C         3.281740        -0.145213        -0.002551
 C         4.540546         0.564677        -0.275559
 C         4.142710         1.946422        -0.177950
 O         3.156232         2.093884         0.868892
 C         2.548314         0.815593         0.947730
 O         2.401574         0.290893        -1.094533
 H        -0.372317        -0.392886         0.960139
 H        -0.583218         1.048568        -0.000568
 H        -0.370712        -0.409223        -0.845669
 H         2.495643        -1.581390         1.364196
 H         2.118343        -1.863675        -0.513110
 H         5.500784         0.548033         0.236544
 H         4.800249         0.352586        -1.305002
 H         4.915149         2.705421         0.082405
 H         3.608381         2.365100        -1.114084
 H         2.489134         0.477833         1.907578
