19
Iteration:   751charge 0 multiplicity 1
 C        -0.023964         0.152396         0.097838
 C         1.459733         0.019136         0.050101
 C         2.349007        -1.378718         0.192937
 C         3.299217        -0.149520        -0.034627
 C         4.580991         0.437199        -0.240699
 C         4.322849         2.086769         0.092599
 O         2.880262         2.115249         0.631059
 C         2.503788         0.785199         1.024365
 O         2.343576         0.372681        -1.168803
 H        -0.310214        -0.136892         1.110819
 H        -0.296456         1.169178        -0.216228
 H        -0.522010        -0.516865        -0.598764
 H         2.466073        -1.750504         1.198913
 H         2.071853        -2.098208        -0.500637
 H         5.358234         0.123684         0.452931
 H         5.105939         0.363230        -1.204074
 H         5.075009         2.266820         0.885100
 H         4.454705         2.692729        -0.830496
 H         2.634788         0.705074         2.143494
