19
Iteration:   488charge 0 multiplicity 1
 C        -0.142236         0.000133         0.092133
 C         1.378277         0.071901         0.137994
 C         2.266201        -1.256384         0.136520
 C         3.255597        -0.051464        -0.167702
 C         4.640557         0.494250        -0.085821
 C         4.354543         1.995203        -0.010041
 O         3.007835         2.137426         0.725250
 C         2.599618         0.776672         1.002516
 O         2.349110         0.347833        -1.199905
 H        -0.323578        -0.590016         0.995168
 H        -0.639195         0.928220         0.300104
 H        -0.379932        -0.603059        -0.798054
 H         2.360250        -1.744536         1.105991
 H         2.258973        -2.068417        -0.679063
 H         5.227899         0.179871         0.707748
 H         5.271051         0.211978        -0.990164
 H         4.953503         2.661680         0.627942
 H         4.165072         2.569747        -0.941695
 H         2.688139         0.387525         2.028193
