19
Iteration:  3106
 C         0.042400         0.351821         0.047446
 C         1.498434        -0.064492         0.146021
 C         2.447345        -1.363406         0.277152
 C         3.355335        -0.148531        -0.070671
 C         4.598823         0.490903        -0.238959
 C         4.019860         2.043282        -0.134761
 O         2.984690         2.085264         0.738473
 C         2.515742         0.775550         0.930305
 O         2.295465         0.249645        -1.033719
 H        -0.683457         0.024909         0.827974
 H        -0.042124         1.479239        -0.119626
 H        -0.287403        -0.114425        -0.944806
 H         2.531882        -1.880501         1.311890
 H         2.342382        -2.076754        -0.644723
 H         5.214879         0.093522         0.647779
 H         5.306264         0.304280        -1.106081
 H         4.792172         2.727345         0.317595
 H         3.606175         2.454155        -1.038353
 H         2.526230         0.654584         2.032941
