19
Iteration:  4691charge 0 multiplicity 1
 C        -0.014710         0.137784        -0.080311
 C         1.439127        -0.071987         0.119106
 C         2.356142        -1.315337         0.312270
 C         3.262064        -0.077413         0.088017
 C         4.700396         0.519700        -0.176977
 C         4.189879         2.042781        -0.222804
 O         3.053691         2.163915         0.722799
 C         2.455313         0.807854         0.965227
 O         2.278763         0.223240        -1.008083
 H        -0.695770        -0.301753         0.703439
 H        -0.211759         1.289687        -0.160286
 H        -0.335392        -0.350132        -1.061753
 H         2.557316        -1.884283         1.258658
 H         2.357298        -1.842629        -0.630474
 H         5.413647         0.494907         0.612695
 H         5.304361         0.239790        -1.053583
 H         5.032791         2.650372        -0.001503
 H         3.696067         2.321545        -1.186411
 H         2.427506         0.716954         2.073781
