19
Iteration:  1910
 C         0.043066         0.174969         0.114533
 C         1.487490        -0.087956         0.185795
 C         2.357530        -1.275008         0.304051
 C         3.282561        -0.060211        -0.162835
 C         4.654685         0.553645        -0.358576
 C         4.339464         2.113245         0.131467
 O         2.869313         2.075844         0.651315
 C         2.573431         0.728572         0.886684
 O         2.166662         0.234890        -1.102140
 H        -0.421167         0.442814         1.033205
 H         0.027814         1.109479        -0.449707
 H        -0.503985        -0.560349        -0.544397
 H         2.364811        -1.807516         1.235509
 H         2.141739        -1.965844        -0.521032
 H         5.333747         0.064245         0.369886
 H         4.954366         0.590573        -1.383132
 H         4.830557         2.405295         1.071764
 H         4.644131         2.817245        -0.522786
 H         2.709355         0.213813         1.741960
