19
Iteration:  3777charge 0 multiplicity 1
 C         0.014811         0.239849         0.063925
 C         1.476228        -0.030250         0.163519
 C         2.469521        -1.362794         0.326699
 C         3.343053        -0.104458        -0.015458
 C         4.645835         0.510280        -0.306626
 C         4.219972         1.957703         0.136838
 O         2.832853         2.096110         0.477877
 C         2.526944         0.792679         0.926362
 O         2.229854         0.337698        -1.078336
 H        -0.668211        -0.013118         0.894760
 H        -0.131131         1.282789        -0.037001
 H        -0.377636        -0.234515        -0.794688
 H         2.657051        -1.880535         1.264399
 H         2.375312        -1.969922        -0.499352
 H         5.452816         0.106812         0.380153
 H         4.926071         0.345652        -1.442204
 H         4.880909         2.130764         0.933081
 H         4.378045         2.726504        -0.628802
 H         2.662660         0.580586         2.022746
