19
Iteration:   124
 C        -0.000129         0.019731        -0.108408
 C         1.491953        -0.028552         0.066523
 C         2.287490        -1.221513         0.383759
 C         3.231439        -0.057841         0.002409
 C         4.553116         0.527610        -0.424936
 C         4.232146         2.000493        -0.083064
 O         3.138151         2.068954         0.900190
 C         2.516112         0.840393         1.041001
 O         2.325918         0.302384        -1.121790
 H        -0.758328        -0.488596         0.557690
 H        -0.224390         1.111555        -0.055905
 H        -0.425203        -0.355507        -1.095054
 H         2.332972        -1.516727         1.452105
 H         2.165451        -2.121771        -0.270222
 H         5.274738         0.131408         0.362494
 H         4.716627         0.387854        -1.470027
 H         5.014163         2.653179         0.363894
 H         3.927832         2.611812        -0.907501
 H         2.339658         0.732172         2.122465
