19
Iteration:  1975charge 0 multiplicity 1
 C        -0.031158         0.006022         0.111816
 C         1.449393         0.022850         0.031270
 C         2.365673        -1.284629         0.291996
 C         3.243200        -0.102204        -0.144507
 C         4.594689         0.518031        -0.275154
 C         4.314889         2.068666         0.055660
 O         3.066137         2.151127         0.713193
 C         2.524067         0.798200         0.939557
 O         2.205764         0.294115        -1.123585
 H        -0.274968        -0.443105         1.045439
 H        -0.489869         0.980264         0.133381
 H        -0.525034        -0.502669        -0.733088
 H         2.322883        -1.598067         1.284372
 H         2.137240        -2.093813        -0.398032
 H         5.250812        -0.036703         0.432279
 H         5.078432         0.424622        -1.236336
 H         5.142886         2.554610         0.742834
 H         4.278180         2.669369        -0.829351
 H         2.722278         0.653898         2.026163
