19
Iteration:    31
 C         0.009777         0.186382         0.237730
 C         1.450742         0.004249         0.019537
 C         2.222142        -1.285199         0.240363
 C         3.367572        -0.107317        -0.114020
 C         4.684909         0.558398        -0.061419
 C         4.204572         2.035264        -0.059846
 O         2.933652         2.078057         0.723727
 C         2.588991         0.710937         0.789271
 O         2.350620         0.255350        -1.184163
 H        -0.170016         0.219452         1.297061
 H        -0.258503         1.168302        -0.165678
 H        -0.687097        -0.501270        -0.165268
 H         2.146006        -1.806423         1.179802
 H         2.053106        -1.996250        -0.605590
 H         5.028039         0.327212         0.889186
 H         5.414463         0.364795        -0.912743
 H         4.795015         2.818455         0.436862
 H         3.859452         2.498004        -1.052140
 H         2.456250         0.388380         1.872250
