19
Iteration:  2888
 C        -0.059223         0.116091         0.050300
 C         1.486820         0.039847         0.064925
 C         2.341403        -1.271298         0.265266
 C         3.284973        -0.093002         0.006346
 C         4.692768         0.546637        -0.340625
 C         4.280617         1.991904        -0.021619
 O         2.928301         2.131013         0.772718
 C         2.488930         0.735714         0.968037
 O         2.328141         0.285546        -1.102804
 H        -0.299955        -0.309435         0.987793
 H        -0.230466         1.207341        -0.076446
 H        -0.645754        -0.454304        -0.728816
 H         2.534883        -1.596441         1.293541
 H         2.239593        -2.041746        -0.464454
 H         5.486228        -0.135209         0.189343
 H         4.671489         0.342112        -1.485793
 H         5.061559         2.674632         0.503155
 H         3.979930         2.351403        -0.987612
 H         2.428964         0.561140         2.176785
