19
Iteration:   617charge 0 multiplicity 1
 C        -0.095168         0.130452         0.010485
 C         1.391070         0.057768         0.045412
 C         2.498429        -1.364537         0.109407
 C         3.254857        -0.030226         0.049120
 C         4.658678         0.399082        -0.112100
 C         4.231146         1.972777        -0.114652
 O         3.048658         2.087894         0.776756
 C         2.533528         0.780958         0.961322
 O         2.214315         0.447732        -1.070900
 H        -0.339685        -0.001720         1.067272
 H        -0.493780         0.976383        -0.531037
 H        -0.479323        -0.802518        -0.444246
 H         2.468645        -1.987141         0.959899
 H         2.624959        -2.085802        -0.740680
 H         5.129433         0.274306         0.832261
 H         5.282686         0.221163        -1.047730
 H         4.945061         2.715800         0.334302
 H         3.879907         2.249666        -1.115830
 H         2.626187         0.574738         2.042745
