19
Iteration:  2024charge 0 multiplicity 1
 C         0.058457         0.089086        -0.031210
 C         1.465074        -0.035086         0.037540
 C         2.361616        -1.343481         0.347183
 C         3.236081        -0.094809         0.003355
 C         4.536737         0.532865        -0.310762
 C         4.154923         2.002497        -0.181690
 O         3.059823         2.089665         0.852036
 C         2.583902         0.762678         0.983938
 O         2.279433         0.421224        -1.042514
 H        -0.431747        -0.348976         0.899459
 H        -0.284167         1.180379        -0.024922
 H        -0.387474        -0.185415        -0.989646
 H         2.587310        -1.897053         1.377790
 H         2.323578        -2.066648        -0.473905
 H         5.283658         0.179555         0.451089
 H         4.964606         0.263444        -1.326042
 H         4.844339         2.675409         0.188443
 H         3.844629         2.485384        -1.195482
 H         2.591151         0.628993         2.003864
