19
Iteration:   414
 C         0.071325         0.241437        -0.103608
 C         1.459067        -0.001895         0.167363
 C         2.284837        -1.349420         0.220868
 C         3.296844        -0.104792        -0.046708
 C         4.670394         0.562660        -0.296627
 C         4.236687         2.136268        -0.056469
 O         2.943067         2.009204         0.789258
 C         2.569506         0.708208         1.103041
 O         2.232927         0.282975        -1.042164
 H        -0.615263         0.324929         0.766353
 H        -0.061884         1.075754        -0.803047
 H        -0.166926        -0.625063        -0.788282
 H         2.328945        -1.860913         1.164774
 H         2.086321        -2.009479        -0.683948
 H         5.474356        -0.001160         0.265738
 H         4.998841         0.557111        -1.352098
 H         4.944001         2.638611         0.534101
 H         3.886881         2.746630        -0.933494
 H         2.765775         0.219154         2.069150
