19
Iteration:  2977
 C         0.004831         0.062407         0.165196
 C         1.424969         0.004363         0.092504
 C         2.249387        -1.311721         0.326958
 C         3.253256        -0.073571        -0.030152
 C         4.685724         0.553223        -0.337788
 C         4.325774         1.996049         0.080454
 O         2.990052         2.143734         0.700325
 C         2.494399         0.819895         0.895311
 O         2.318282         0.278726        -1.247745
 H        -0.376882        -0.189532         1.177445
 H        -0.407173         1.044688        -0.153584
 H        -0.405877        -0.662588        -0.516212
 H         2.249886        -1.596053         1.353516
 H         2.117833        -2.162960        -0.401880
 H         5.543334         0.125873         0.348600
 H         4.799980         0.436846        -1.453466
 H         5.040464         2.484718         0.816013
 H         4.366852         2.712450        -0.743529
 H         2.403184         0.494055         2.048954
