19
Iteration:   736charge 0 multiplicity 1
 C         0.052121         0.171666         0.019974
 C         1.528238        -0.027488         0.085914
 C         2.270831        -1.280830         0.320868
 C         3.292223        -0.165221        -0.095636
 C         4.684718         0.577739        -0.286954
 C         4.214868         1.964506         0.134436
 O         2.910284         2.066808         0.604666
 C         2.571345         0.739563         0.912043
 O         2.265523         0.380881        -1.062266
 H        -0.461501        -0.148791         0.966350
 H        -0.131176         1.286375        -0.088515
 H        -0.507492        -0.270103        -0.866110
 H         2.232774        -1.709153         1.334994
 H         2.205771        -2.116685        -0.461440
 H         5.359666         0.139908         0.457574
 H         5.056388         0.419827        -1.398064
 H         4.817254         2.370063         0.939400
 H         4.234666         2.727383        -0.638771
 H         2.531614         0.430789         2.018209
