19
Iteration:  3903
 C        -0.010166        -0.005849         0.004386
 C         1.468371         0.023050         0.071403
 C         2.308988        -1.233889         0.239553
 C         3.297738        -0.125982         0.070784
 C         4.648266         0.460831        -0.194337
 C         4.135723         1.991342        -0.139302
 O         3.024006         2.085793         0.671738
 C         2.506643         0.778170         1.006496
 O         2.379447         0.488635        -1.036446
 H        -0.422499        -0.501246         0.903534
 H        -0.477012         1.006787        -0.200567
 H        -0.378078        -0.604023        -0.910954
 H         2.276913        -1.741049         1.213220
 H         2.005364        -2.018477        -0.471228
 H         5.279836         0.203564         0.666326
 H         5.028043         0.266771        -1.124892
 H         4.979019         2.760897         0.166037
 H         4.008940         2.124528        -1.209941
 H         2.507573         0.719477         2.134866
