19
Iteration:  1940charge 0 multiplicity 1
 C        -0.083391         0.132972         0.167691
 C         1.475349         0.064168         0.082066
 C         2.459439        -1.296952         0.191359
 C         3.271867        -0.102587        -0.068649
 C         4.616287         0.491003        -0.327801
 C         4.293062         2.024789         0.103765
 O         2.916624         2.060693         0.548290
 C         2.494317         0.786378         0.969953
 O         2.294086         0.329096        -1.051980
 H        -0.289295        -0.030170         1.241592
 H        -0.444995         1.115467        -0.169245
 H        -0.467520        -0.705510        -0.292302
 H         2.590513        -1.733613         1.165859
 H         2.337197        -1.976692        -0.576850
 H         5.371363         0.035854         0.284145
 H         4.818884         0.525744        -1.404323
 H         4.889736         2.296688         1.076119
 H         4.561578         2.664303        -0.755652
 H         2.458106         0.428649         2.095359
