19
Iteration:  2004charge 0 multiplicity 1
 C        -0.089923         0.052697        -0.003329
 C         1.413869        -0.028216         0.175834
 C         2.413628        -1.245659         0.279349
 C         3.256489        -0.056030        -0.143270
 C         4.705322         0.528183        -0.266855
 C         4.238859         2.025791        -0.084328
 O         3.095212         2.126698         0.837718
 C         2.568145         0.794034         1.021526
 O         2.156116         0.261888        -1.155006
 H        -0.783837        -0.488445         0.697482
 H        -0.477357         1.122453         0.018469
 H        -0.246539        -0.273470        -0.996362
 H         2.432788        -1.599699         1.375492
 H         2.218412        -2.056126        -0.360176
 H         5.280310         0.115490         0.552581
 H         5.109336         0.452205        -1.267259
 H         5.003648         2.654224         0.361071
 H         4.052554         2.539631        -1.051211
 H         2.836268         0.518791         2.037560
