19
Iteration:  3593
 C         0.052760         0.311719         0.000371
 C         1.503659        -0.024457         0.149227
 C         2.355442        -1.349967         0.301109
 C         3.268891        -0.135667        -0.072062
 C         4.656881         0.484904        -0.167535
 C         4.050707         2.021295        -0.114947
 O         2.918163         2.139968         0.701466
 C         2.645322         0.791325         0.959930
 O         2.301771         0.218270        -1.085438
 H        -0.427632        -0.179301         0.915594
 H        -0.076033         1.382840         0.032224
 H        -0.255579        -0.108788        -0.941294
 H         2.541693        -1.786138         1.366394
 H         2.143658        -2.095896        -0.424847
 H         5.090413         0.228509         0.689031
 H         5.239277         0.319483        -1.057710
 H         4.833792         2.755724         0.167135
 H         3.725112         2.104497        -1.209803
 H         2.784246         0.507978         1.969915
