19
Iteration:  4362charge 0 multiplicity 1
 C         0.006306         0.009554        -0.043329
 C         1.493056         0.060445         0.096523
 C         2.325367        -1.246813         0.408283
 C         3.273721        -0.087498         0.003858
 C         4.636069         0.472861        -0.288305
 C         4.275121         2.007291        -0.048023
 O         2.929132         2.167972         0.676369
 C         2.525645         0.798070         0.994686
 O         2.328723         0.299305        -1.117922
 H        -0.448216        -0.097967         0.930112
 H        -0.548482         0.842721        -0.382989
 H        -0.433360        -0.798678        -0.540531
 H         2.221212        -1.674837         1.399491
 H         2.115445        -1.892034        -0.482993
 H         5.425105         0.030833         0.308360
 H         4.920505         0.438388        -1.290198
 H         5.040940         2.483368         0.624301
 H         4.192489         2.502345        -1.037344
 H         2.492008         0.579698         2.086890
