19
Iteration:  3788charge 0 multiplicity 1
 C         0.085677         0.272851         0.009906
 C         1.569533        -0.069500         0.119298
 C         2.406587        -1.304610         0.248389
 C         3.278462        -0.136966         0.003983
 C         4.617904         0.448245        -0.379215
 C         4.205125         2.025006         0.119445
 O         2.796241         2.116287         0.539348
 C         2.577043         0.836551         1.018975
 O         2.240580         0.239279        -1.030291
 H        -0.231726        -0.123624         1.002744
 H        -0.029122         1.292852        -0.168257
 H        -0.380285        -0.274434        -0.745070
 H         2.482551        -1.741650         1.241155
 H         2.217287        -1.997711        -0.456228
 H         5.451213         0.044988         0.297261
 H         4.939033         0.351667        -1.552461
 H         4.605704         2.251642         1.027233
 H         4.410451         2.842246        -0.595985
 H         2.577746         0.853966         2.145087
