19
Iteration:  1172
 C        -0.144062         0.142153        -0.007526
 C         1.441714        -0.111091         0.113154
 C         2.478372        -1.295662         0.237447
 C         3.216541        -0.009050        -0.056428
 C         4.604901         0.421746        -0.221772
 C         4.344567         2.061807        -0.006290
 O         3.035862         2.153580         0.664993
 C         2.512075         0.816359         1.061059
 O         2.226947         0.290754        -1.083543
 H        -0.595689         0.281163         0.978322
 H        -0.157949         1.036204        -0.623263
 H        -0.707579        -0.660069        -0.486202
 H         2.668802        -1.864131         1.149474
 H         2.291219        -1.880330        -0.624888
 H         5.330131        -0.170092         0.399492
 H         5.029577         0.030508        -1.253779
 H         5.140610         2.466727         0.599621
 H         4.209051         2.669759        -0.954053
 H         2.658158         0.721125         2.113485
