19
Iteration:  4540charge 0 multiplicity 1
 C        -0.054379        -0.071078        -0.000257
 C         1.438347        -0.044408         0.055086
 C         2.343358        -1.261097         0.386839
 C         3.204577        -0.101957         0.096803
 C         4.580709         0.506925        -0.338580
 C         4.440894         2.037601         0.151824
 O         2.978005         2.213147         0.525793
 C         2.530431         0.953302         0.909622
 O         2.278805         0.223637        -1.089860
 H        -0.430234        -0.108797         0.988588
 H        -0.401240         0.896290        -0.372774
 H        -0.557605        -0.800485        -0.611120
 H         2.422152        -1.853571         1.333431
 H         2.356171        -1.892449        -0.495588
 H         5.433067         0.030420         0.153768
 H         4.490807         0.369266        -1.472186
 H         5.060063         2.403780         1.063866
 H         4.688424         2.785332        -0.683649
 H         2.544492         1.004031         2.015314
