19
Iteration:  2046charge 0 multiplicity 1
 C        -0.026590         0.181276         0.007948
 C         1.489885         0.067341         0.156531
 C         2.341896        -1.219694         0.174944
 C         3.384967        -0.129019         0.081402
 C         4.648478         0.531396        -0.324721
 C         4.071756         1.997212        -0.157664
 O         2.964737         2.028379         0.768152
 C         2.560679         0.681866         1.070799
 O         2.376477         0.322909        -1.040233
 H        -0.502374        -0.090662         1.023000
 H        -0.490440         1.192248        -0.288750
 H        -0.358977        -0.404375        -0.839382
 H         2.373109        -1.825610         1.235409
 H         2.204527        -1.897832        -0.645733
 H         5.596949         0.375817         0.259187
 H         4.980585         0.227364        -1.358948
 H         4.727768         2.783691        -0.037549
 H         3.499026         2.195573        -1.151787
 H         2.389470         0.549260         2.093408
