19
Iteration:  4366charge 0 multiplicity 1
 C        -0.016501         0.006379        -0.043104
 C         1.503923         0.039414         0.077578
 C         2.350321        -1.236024         0.441914
 C         3.284182        -0.074288        -0.001553
 C         4.595883         0.483681        -0.288068
 C         4.285121         1.993998        -0.056982
 O         2.976010         2.170343         0.715268
 C         2.494055         0.777936         0.933174
 O         2.316183         0.311013        -1.096110
 H        -0.468962        -0.042574         0.951443
 H        -0.528208         0.930700        -0.492759
 H        -0.400790        -0.858246        -0.674789
 H         2.254537        -1.698488         1.444220
 H         2.107361        -1.984283        -0.371193
 H         5.473647         0.112073         0.390447
 H         4.941481         0.458543        -1.438401
 H         4.995486         2.498121         0.600823
 H         4.091430         2.457439        -1.024170
 H         2.423022         0.588929         1.989510
