19
Iteration:  1689
 C        -0.075192         0.070608         0.113774
 C         1.481747         0.045990         0.053904
 C         2.268912        -1.315318         0.301118
 C         3.287243        -0.082131        -0.104567
 C         4.615492         0.541086        -0.303127
 C         4.219183         2.044417        -0.067035
 O         3.009424         2.074172         0.785632
 C         2.539451         0.740763         0.945331
 O         2.350768         0.375077        -1.121727
 H        -0.394378        -0.160923         1.193157
 H        -0.357000         1.124450        -0.228390
 H        -0.390209        -0.663506        -0.654469
 H         2.252377        -1.560729         1.442349
 H         2.315680        -2.255404        -0.323482
 H         5.372721         0.226132         0.487588
 H         5.152035         0.368127        -1.305048
 H         5.063309         2.447740         0.597886
 H         4.118809         2.444863        -1.087536
 H         2.584616         0.353837         2.015154
