19
Iteration:  3430
 C         0.062508         0.296723         0.076475
 C         1.480457        -0.005043         0.055574
 C         2.334916        -1.347099         0.411326
 C         3.297936        -0.127071        -0.007585
 C         4.580250         0.618560        -0.292120
 C         4.225033         2.020818         0.045193
 O         2.886936         2.063695         0.610625
 C         2.514173         0.752328         0.907413
 O         2.363583         0.165916        -1.142085
 H        -0.438151        -0.061507         0.979773
 H        -0.102224         1.391146         0.017575
 H        -0.500249        -0.113233        -0.769161
 H         2.459827        -1.757578         1.438214
 H         2.233877        -2.089916        -0.398998
 H         5.415311         0.278697         0.391543
 H         4.893381         0.579368        -1.388898
 H         4.869236         2.454294         0.728405
 H         4.116764         2.680742        -0.856909
 H         2.623133         0.497106         2.035777
