19
Iteration:  1785charge 0 multiplicity 1
 C        -0.033230         0.128651         0.104525
 C         1.460790         0.098413         0.018883
 C         2.390569        -1.335400         0.206778
 C         3.262822        -0.101962        -0.054610
 C         4.619244         0.469571        -0.244785
 C         4.104060         2.100586        -0.126967
 O         3.084432         2.108027         0.827973
 C         2.535828         0.799953         1.025842
 O         2.346380         0.256984        -1.111847
 H        -0.261204        -0.345963         1.063124
 H        -0.357043         1.170522         0.193420
 H        -0.573406        -0.322784        -0.718344
 H         2.274547        -1.929755         1.057345
 H         2.273773        -1.897406        -0.723808
 H         5.187901        -0.025986         0.505238
 H         5.089183         0.156828        -1.161890
 H         4.924173         2.664862         0.322676
 H         3.668330         2.332797        -1.131172
 H         2.332027         0.495464         2.017653
