19
Iteration:  3590charge 0 multiplicity 1
 C         0.044488         0.281754        -0.001562
 C         1.499372        -0.015998         0.156822
 C         2.352276        -1.332057         0.320771
 C         3.304216        -0.146148        -0.058234
 C         4.662951         0.514363        -0.180691
 C         4.073389         1.982795        -0.117173
 O         2.919560         2.130538         0.689087
 C         2.609195         0.768123         0.931694
 O         2.268571         0.248234        -1.058043
 H        -0.485383        -0.124401         0.816877
 H         0.011633         1.400549         0.026400
 H        -0.266563        -0.126119        -0.988518
 H         2.576617        -1.722253         1.262451
 H         2.175293        -2.079162        -0.474420
 H         5.184293         0.256976         0.784529
 H         5.272946         0.312267        -1.120002
 H         4.846811         2.737702         0.196593
 H         3.815733         2.158065        -1.197556
 H         2.826721         0.541307         2.015135
