19
Iteration:  1063charge 0 multiplicity 1
 C         0.018908         0.304380         0.042934
 C         1.461529        -0.056878         0.172156
 C         2.399582        -1.386742         0.260156
 C         3.288803        -0.150182        -0.023868
 C         4.637154         0.470559        -0.117099
 C         4.129161         2.019873        -0.165410
 O         2.905680         2.074987         0.683977
 C         2.540869         0.710062         0.942305
 O         2.338642         0.402451        -1.094503
 H        -0.501230        -0.067028         0.931846
 H         0.020541         1.391930         0.146877
 H        -0.402579         0.039925        -0.943664
 H         2.626746        -1.816404         1.174334
 H         2.342351        -2.020331        -0.603060
 H         5.226155         0.153758         0.787132
 H         5.062337         0.184516        -1.156095
 H         5.002227         2.674663         0.081018
 H         3.779396         2.372668        -1.215570
 H         2.742905         0.564265         2.068962
