19
Iteration:  2435
 C        -0.020143         0.165837         0.201207
 C         1.467475        -0.029318         0.030145
 C         2.348366        -1.284675         0.314086
 C         3.283318        -0.095005        -0.138344
 C         4.627030         0.525931        -0.276254
 C         4.281967         2.098631         0.074302
 O         2.935306         2.144879         0.671507
 C         2.521174         0.744933         0.856382
 O         2.298738         0.198072        -1.155360
 H        -0.164597         0.175210         1.296098
 H        -0.226599         1.181118        -0.256840
 H        -0.721743        -0.625606        -0.163523
 H         2.446095        -1.695823         1.337475
 H         2.189409        -2.034639        -0.393822
 H         5.357882         0.184496         0.463775
 H         4.868124         0.336447        -1.355602
 H         4.822977         2.498030         0.932013
 H         4.459946         2.702559        -0.747516
 H         2.635087         0.325882         1.915313
