19
Iteration:  2688
 C        -0.027365        -0.074063         0.019468
 C         1.532903         0.044063         0.103556
 C         2.234876        -1.283730         0.325748
 C         3.308250        -0.094570         0.000776
 C         4.597817         0.504148        -0.301358
 C         4.330303         2.033595         0.023222
 O         2.960161         2.126231         0.631850
 C         2.525745         0.834873         0.985928
 O         2.312034         0.407182        -1.099748
 H        -0.371808        -0.252565         1.094493
 H        -0.556044         0.814506        -0.277845
 H        -0.195171        -0.855251        -0.664578
 H         2.066462        -1.693092         1.264620
 H         2.125378        -1.938390        -0.605829
 H         5.254894        -0.158935         0.357311
 H         4.764197         0.458653        -1.377030
 H         5.033954         2.509952         0.807165
 H         4.326427         2.444842        -1.021115
 H         2.692071         0.625292         2.055159
