19
Iteration:  1401
 C        -0.089750         0.226991         0.126025
 C         1.485446        -0.027136         0.061439
 C         2.447362        -1.302402         0.232171
 C         3.297382        -0.039367         0.116717
 C         4.617742         0.499480        -0.368347
 C         4.232368         1.984945         0.075527
 O         2.932289         2.036787         0.639025
 C         2.472795         0.758213         0.933584
 O         2.362348         0.325634        -1.147020
 H        -0.459950        -0.118941         1.124758
 H        -0.357541         1.309046        -0.076043
 H        -0.698626        -0.389265        -0.573832
 H         2.408584        -1.809288         1.258186
 H         2.641302        -2.048679        -0.506663
 H         5.468224         0.228693         0.203261
 H         4.748755         0.290327        -1.471178
 H         4.931267         2.309549         0.862051
 H         4.186178         2.583942        -0.888449
 H         2.382849         0.688401         2.101084
