19
Iteration:  4657charge 0 multiplicity 1
 C         0.096279         0.182918         0.100244
 C         1.470570         0.010017         0.075574
 C         2.378110        -1.210517         0.331821
 C         3.283074        -0.105443        -0.067864
 C         4.679207         0.488109        -0.087564
 C         4.169725         2.011082        -0.037896
 O         2.845570         2.032885         0.470695
 C         2.517669         0.767719         0.929916
 O         2.322707         0.312527        -1.070756
 H        -0.298727        -0.250586         1.075044
 H        -0.305910         1.300270         0.011488
 H        -0.353187        -0.388928        -0.774817
 H         2.519163        -1.631835         1.342375
 H         2.228978        -2.102182        -0.359144
 H         4.985266         0.342426         0.915330
 H         5.283839         0.150801        -0.907672
 H         4.922654         2.545149         0.494333
 H         4.140495         2.428485        -1.077055
 H         2.569769         0.405865         1.974928
