19
Iteration:  4432charge 0 multiplicity 1
 C         0.041198         0.100182        -0.128021
 C         1.487618         0.037821         0.069578
 C         2.300761        -1.273680         0.444111
 C         3.307482        -0.109089         0.016880
 C         4.602205         0.597117        -0.291910
 C         4.106354         2.046443        -0.226399
 O         3.053058         2.038469         0.803936
 C         2.516067         0.754494         1.073414
 O         2.363945         0.314732        -1.062409
 H        -0.586273        -0.093138         0.721011
 H        -0.255062         1.083431        -0.534785
 H        -0.236044        -0.681647        -0.848022
 H         2.329246        -1.666584         1.499520
 H         1.942359        -1.889971        -0.369975
 H         5.300046         0.309418         0.577742
 H         5.039977         0.015720        -1.227264
 H         4.908071         2.755542        -0.025233
 H         3.687811         2.188494        -1.236646
 H         2.389946         0.542499         2.131214
