19
Iteration:  3394
 C        -0.034149         0.165494        -0.037390
 C         1.418906        -0.065987         0.100323
 C         2.429737        -1.290934         0.401991
 C         3.190267        -0.067857        -0.100100
 C         4.696387         0.593865        -0.177735
 C         4.276163         1.997595        -0.053947
 O         3.030490         2.114299         0.773741
 C         2.536075         0.834294         0.916620
 O         2.188079         0.197238        -1.138066
 H        -0.550065        -0.139899         0.847959
 H        -0.111499         1.268987        -0.181331
 H        -0.398017        -0.363547        -0.943355
 H         2.537315        -1.765697         1.403553
 H         2.318462        -2.060175        -0.462213
 H         5.323728         0.169653         0.531100
 H         5.156669         0.416213        -1.146949
 H         4.948709         2.717750         0.340964
 H         4.033180         2.316442        -1.069797
 H         2.603743         0.508331         1.950260
