19
Iteration:  4003
 C        -0.039197         0.129232         0.017050
 C         1.485776        -0.041591         0.104496
 C         2.356178        -1.377273         0.224360
 C         3.332858        -0.098127         0.024352
 C         4.644517         0.552659        -0.271947
 C         4.275341         1.975409        -0.033712
 O         2.851913         2.064400         0.593736
 C         2.517020         0.820932         1.033246
 O         2.340078         0.404445        -1.010783
 H        -0.523513         0.055544         1.098812
 H        -0.251005         1.105478        -0.467093
 H        -0.579424        -0.615160        -0.643360
 H         2.545315        -1.915166         1.231545
 H         2.200447        -1.919563        -0.674812
 H         5.406646         0.227665         0.439533
 H         4.997884         0.184170        -1.203702
 H         5.144992         2.566739         0.550908
 H         4.319512         2.582416        -0.983755
 H         2.318931         0.744444         2.186051
