19
Iteration:  4372
 C        -0.066205         0.014853        -0.057420
 C         1.463729        -0.005119         0.046716
 C         2.374376        -1.239806         0.459645
 C         3.290897        -0.076232        -0.008046
 C         4.585843         0.518673        -0.305912
 C         4.265604         1.983310        -0.054411
 O         3.061096         2.140649         0.773734
 C         2.457905         0.818812         0.858877
 O         2.297470         0.316005        -1.073175
 H        -0.477322        -0.034901         0.966630
 H        -0.261635         0.921828        -0.597229
 H        -0.239422        -0.816939        -0.722308
 H         2.437501        -1.589860         1.496011
 H         2.232576        -2.160845        -0.129393
 H         5.332316         0.283597         0.387690
 H         4.858419         0.326230        -1.264099
 H         5.056345         2.584246         0.468347
 H         4.006078         2.483490        -1.006311
 H         2.378134         0.578695         1.955429
