19
Iteration:  4043charge 0 multiplicity 1
 C         0.003980        -0.049901         0.063801
 C         1.458714         0.086314         0.087481
 C         2.332289        -1.219068         0.287720
 C         3.216967        -0.100481        -0.188182
 C         4.617637         0.495314        -0.141430
 C         4.341725         1.991576        -0.060179
 O         3.067326         2.166110         0.842188
 C         2.524778         0.868549         0.948519
 O         2.199138         0.261589        -1.234474
 H        -0.382497        -0.118141         1.032504
 H        -0.416953         0.792730        -0.446961
 H        -0.257522        -0.945032        -0.500055
 H         2.427482        -1.766826         1.219479
 H         2.157384        -1.983870        -0.482287
 H         4.948847         0.148865         0.948470
 H         5.408485         0.437439        -0.929274
 H         4.924055         2.653035         0.492134
 H         4.033535         2.533157        -0.974550
 H         2.465244         0.594925         1.974600
