19
Iteration:  3684
 C        -0.074774        -0.014029        -0.065862
 C         1.429075         0.001447         0.164737
 C         2.363340        -1.339595         0.307741
 C         3.244824        -0.062117         0.027931
 C         4.689299         0.445980        -0.276256
 C         4.411925         2.024273        -0.075016
 O         2.988231         2.156076         0.647924
 C         2.573188         0.811208         1.018445
 O         2.148089         0.421084        -1.035613
 H        -0.761511         0.070385         0.786934
 H        -0.202175         0.931126        -0.670573
 H        -0.278958        -0.929449        -0.697393
 H         2.643983        -1.705589         1.348121
 H         2.037303        -2.156647        -0.478580
 H         5.392979         0.103240         0.493425
 H         4.913866         0.285652        -1.284351
 H         5.133469         2.684987         0.447114
 H         4.151670         2.479454        -1.020048
 H         2.665616         0.655064         2.097296
