19
Iteration:  4879
 C         0.039585         0.044069        -0.156475
 C         1.418213        -0.017847         0.247438
 C         2.317225        -1.251969         0.450572
 C         3.289960        -0.066874         0.024715
 C         4.602998         0.494268        -0.311574
 C         4.283358         2.029406        -0.061372
 O         3.009782         2.138464         0.592527
 C         2.556135         0.840929         1.003695
 O         2.233200         0.288100        -1.044195
 H        -0.801500        -0.363721         0.534557
 H        -0.175103         1.084658        -0.505427
 H         0.015660        -0.708157        -1.091256
 H         2.532675        -1.649477         1.472368
 H         2.127091        -2.014889        -0.394542
 H         5.456610         0.145335         0.230009
 H         4.747103         0.197101        -1.341228
 H         4.925085         2.396597         0.752095
 H         4.034220         2.717631        -0.875285
 H         2.683289         0.563027         2.120844
