19
Iteration:  2775charge 0 multiplicity 1
 C         0.010934         0.252407         0.036246
 C         1.457007        -0.040658         0.140761
 C         2.313914        -1.303982         0.316368
 C         3.332493        -0.114001        -0.080843
 C         4.685181         0.625938        -0.246789
 C         4.210196         2.091496         0.021007
 O         2.886931         2.064746         0.719940
 C         2.572791         0.728010         0.913210
 O         2.303348         0.191591        -1.172213
 H        -0.403087        -0.134955         1.033561
 H        -0.201611         1.298959        -0.007028
 H        -0.518554        -0.289180        -0.694378
 H         2.479322        -1.690236         1.320350
 H         2.103776        -2.265539        -0.269541
 H         5.606854         0.111938         0.158307
 H         4.715323         0.432484        -1.312332
 H         4.815703         2.502049         0.724653
 H         4.183030         2.668468        -0.961810
 H         2.706755         0.443497         2.076298
