19
Iteration:  2174charge 0 multiplicity 1
 C        -0.064073         0.010994         0.018771
 C         1.434624        -0.053227         0.211669
 C         2.429421        -1.250042         0.361713
 C         3.228655         0.028080        -0.085844
 C         4.571660         0.483188        -0.377971
 C         4.361632         1.958518         0.117545
 O         3.012998         2.192764         0.563256
 C         2.540662         0.835339         0.955212
 O         2.198386         0.307999        -1.074299
 H        -0.681155        -0.556820         0.744370
 H        -0.516912         0.992000        -0.135125
 H        -0.203356        -0.606904        -0.885195
 H         2.751206        -1.779157         1.248755
 H         2.372807        -1.926092        -0.474110
 H         5.103909        -0.099847         0.381075
 H         4.963233         0.410920        -1.438003
 H         5.065786         2.152394         1.015428
 H         4.501867         2.714080        -0.726616
 H         2.747639         0.594381         2.065235
