19
Iteration:  4509
 C        -0.001258         0.111765         0.133038
 C         1.450889         0.020836         0.066393
 C         2.374995        -1.217266         0.463466
 C         3.291922        -0.129064        -0.193339
 C         4.720261         0.520478        -0.163851
 C         4.327631         2.079086         0.132756
 O         2.848942         2.100999         0.598218
 C         2.478844         0.832839         0.728418
 O         2.238621         0.182523        -1.186545
 H        -0.284543        -0.311777         1.075579
 H        -0.334768         1.124499         0.118230
 H        -0.592536        -0.352206        -0.640377
 H         2.657801        -1.490909         1.539683
 H         2.202635        -2.114978        -0.057256
 H         5.367558         0.081311         0.678950
 H         5.430490         0.384034        -1.126690
 H         4.996585         2.455305         0.904130
 H         4.488647         2.513843        -0.876233
 H         2.461972         0.601565         1.814236
