19
Iteration:  4297
 C        -0.005971         0.210363         0.161992
 C         1.475435        -0.031196         0.069595
 C         2.433030        -1.208136         0.424016
 C         3.280756        -0.084132        -0.163538
 C         4.570300         0.565280        -0.192672
 C         4.288405         2.032225         0.159644
 O         2.927609         2.144312         0.595706
 C         2.518987         0.790881         0.817929
 O         2.226327         0.085618        -1.281486
 H        -0.304607        -0.276455         1.084786
 H        -0.101176         1.256056         0.236662
 H        -0.470561        -0.145789        -0.708778
 H         2.584142        -1.639182         1.443113
 H         2.456469        -2.076356        -0.323547
 H         5.103300         0.034936         0.720605
 H         5.155465         0.354745        -1.094959
 H         4.864477         2.225295         1.120245
 H         4.371407         2.754261        -0.712786
 H         2.662553         0.579260         1.900066
