19
Iteration:   926charge 0 multiplicity 1
 C        -0.036078         0.137916         0.074943
 C         1.423208        -0.029406        -0.027817
 C         2.401885        -1.307422         0.269059
 C         3.289973        -0.053959        -0.004742
 C         4.665057         0.461895        -0.170057
 C         4.237033         1.929416        -0.056106
 O         2.978610         2.124105         0.729071
 C         2.448813         0.848286         0.944262
 O         2.338605         0.349720        -1.142791
 H        -0.144192        -0.321088         1.091227
 H        -0.185965         1.228569         0.192685
 H        -0.661835        -0.338517        -0.676468
 H         2.536501        -1.826457         1.252348
 H         2.091501        -2.031719        -0.436075
 H         5.314681        -0.016110         0.625787
 H         4.953144         0.419088        -1.220967
 H         4.986821         2.526755         0.427990
 H         4.002404         2.454805        -0.949146
 H         2.398227         0.538512         1.987818
