19
Iteration:  4384
 C        -0.048017         0.029033        -0.142934
 C         1.389383        -0.056430         0.077097
 C         2.417902        -1.260602         0.466567
 C         3.203265        -0.073152        -0.013086
 C         4.621215         0.539326        -0.277420
 C         4.206591         2.081632        -0.122467
 O         3.174910         2.073648         0.856367
 C         2.483319         0.896116         0.975500
 O         2.257094         0.250178        -1.165389
 H        -0.659039         0.008553         0.743915
 H        -0.351342         0.959178        -0.582366
 H        -0.542493        -0.742889        -0.681348
 H         2.575956        -1.261927         1.526498
 H         2.519102        -2.220047        -0.126292
 H         5.310282         0.128320         0.441062
 H         5.011024         0.301236        -1.208771
 H         5.118531         2.592562         0.325454
 H         3.926744         2.545084        -1.090381
 H         2.422127         0.688589         2.075394
