19
Iteration:  4322
 C        -0.059791         0.184664         0.151704
 C         1.446132        -0.057845         0.087619
 C         2.438776        -1.348897         0.333515
 C         3.287021        -0.105155        -0.087566
 C         4.739224         0.534922        -0.131157
 C         4.358194         2.011569         0.126071
 O         2.826392         2.111452         0.408630
 C         2.459927         0.827124         0.892013
 O         2.220367         0.307193        -1.122199
 H        -0.151313        -0.222463         1.147355
 H        -0.074287         1.315408         0.191404
 H        -0.521651        -0.292630        -0.743277
 H         2.686088        -1.935588         1.232637
 H         2.422151        -2.163442        -0.449831
 H         5.372705        -0.021706         0.679476
 H         5.212424         0.372250        -1.217867
 H         4.841681         2.502098         0.966419
 H         4.420020         2.560960        -0.808700
 H         2.521534         0.683979         1.974069
