19
Iteration:  2615charge 0 multiplicity 1
 C        -0.015363         0.229553         0.020812
 C         1.478475         0.068692         0.083929
 C         2.378482        -1.334208         0.334751
 C         3.330886        -0.181028        -0.021381
 C         4.616458         0.590419        -0.277553
 C         4.119729         2.089718        -0.129159
 O         2.947860         2.057274         0.807715
 C         2.566950         0.712187         0.953557
 O         2.371709         0.241675        -1.103851
 H        -0.397561         0.169823         1.073020
 H        -0.278738         1.230754        -0.312817
 H        -0.325988        -0.549882        -0.789293
 H         2.214766        -1.845334         1.366120
 H         2.113780        -2.034503        -0.511519
 H         5.427039         0.338810         0.444854
 H         4.965954         0.334549        -1.297829
 H         4.966272         2.791857         0.170531
 H         3.660860         2.282089        -1.027199
 H         2.362682         0.444079         2.082505
