19
Iteration:  2622
 C         0.009062         0.223983        -0.017536
 C         1.496552         0.029521         0.109991
 C         2.384003        -1.337777         0.380177
 C         3.307850        -0.075779        -0.011010
 C         4.637782         0.563024        -0.297818
 C         4.141727         2.084330        -0.111494
 O         2.983337         2.063421         0.843258
 C         2.534396         0.709672         0.921121
 O         2.303497         0.207975        -1.135584
 H        -0.475574         0.086593         1.013126
 H        -0.271500         1.223426        -0.400777
 H        -0.464070        -0.531928        -0.617294
 H         2.174512        -1.783378         1.303821
 H         2.202028        -1.947790        -0.553594
 H         5.326260         0.425477         0.581076
 H         5.031535         0.318861        -1.282616
 H         5.034535         2.808157         0.211190
 H         3.674585         2.449607        -1.090958
 H         2.570299         0.292712         1.872924
