19
Iteration:   380charge 0 multiplicity 1
 C        -0.009022         0.375301        -0.015692
 C         1.522995        -0.008938         0.040849
 C         2.432483        -1.349733         0.294503
 C         3.284913        -0.139393        -0.056775
 C         4.651565         0.440001        -0.400667
 C         4.163080         2.101526         0.005383
 O         2.863573         2.050353         0.860678
 C         2.454125         0.672745         0.993786
 O         2.409818         0.263973        -1.062420
 H        -0.626057        -0.000067         0.811643
 H         0.019435         1.455162        -0.212693
 H        -0.439296        -0.193664        -0.887133
 H         2.507800        -1.643327         1.312441
 H         2.266789        -2.220422        -0.392079
 H         5.526534         0.181604         0.149212
 H         4.628326         0.458379        -1.544933
 H         4.784904         2.726794         0.560462
 H         3.854613         2.669683        -0.901413
 H         2.626821         0.482861         2.038653
