19
Iteration:  4951charge 0 multiplicity 1
 C        -0.038009         0.192087         0.043630
 C         1.437785         0.034319         0.130595
 C         2.362841        -1.379837         0.301260
 C         3.321425        -0.128010        -0.069691
 C         4.656815         0.541515        -0.010477
 C         4.210588         2.041610        -0.177968
 O         2.987855         2.210164         0.763000
 C         2.540300         0.753934         0.879603
 O         2.271913         0.164792        -1.222964
 H        -0.355831         0.019898         1.025203
 H        -0.374194         1.163233        -0.276965
 H        -0.485860        -0.592154        -0.476054
 H         2.531294        -1.725744         1.325722
 H         2.149446        -2.020226        -0.522534
 H         5.216352         0.438533         0.972041
 H         5.492716         0.452779        -0.819657
 H         4.811527         2.835982         0.293915
 H         3.809215         2.236374        -1.245971
 H         2.671464         0.573635         1.950282
