19
Iteration:  1661
 C        -0.049403        -0.038344         0.098991
 C         1.474260         0.110108         0.075450
 C         2.279138        -1.204932         0.215020
 C         3.285883        -0.051272        -0.101317
 C         4.668179         0.506595        -0.192054
 C         4.237021         1.963346        -0.043297
 O         3.049489         2.132572         0.775345
 C         2.572874         0.827386         0.966031
 O         2.209664         0.303345        -1.144195
 H        -0.313460        -0.546305         1.020285
 H        -0.456462         0.952895         0.042457
 H        -0.387687        -0.701442        -0.687825
 H         2.308566        -1.723503         1.191836
 H         2.167962        -1.941381        -0.582197
 H         5.275737         0.072765         0.649578
 H         5.173046         0.344172        -1.171208
 H         5.090199         2.491879         0.357831
 H         4.247982         2.370921        -1.078961
 H         2.653508         0.412234         1.968891
