19
Iteration:  2422
 C         0.030248         0.203699         0.238588
 C         1.475166        -0.027045         0.002558
 C         2.304982        -1.353779         0.287666
 C         3.297192        -0.094939         0.036613
 C         4.661863         0.554952        -0.295204
 C         4.296683         2.094551         0.057663
 O         2.910822         2.073252         0.660600
 C         2.494761         0.793172         0.939965
 O         2.273348         0.208471        -1.271845
 H        -0.145945         0.117620         1.297096
 H        -0.423981         1.159869        -0.039978
 H        -0.542279        -0.589662        -0.384360
 H         2.403928        -1.681788         1.308711
 H         2.330182        -2.085169        -0.431160
 H         5.462625         0.108296         0.303241
 H         5.159181         0.524218        -1.297070
 H         5.227506         2.383891         0.625479
 H         4.045070         2.820752        -0.790981
 H         2.325835         0.733933         1.999959
