19
Iteration:  4937charge 0 multiplicity 1
 C         0.000761         0.117344         0.044469
 C         1.479416         0.047759        -0.012618
 C         2.421518        -1.214468         0.370273
 C         3.268513        -0.080443        -0.065202
 C         4.644564         0.536907        -0.102598
 C         4.152155         1.974984        -0.122643
 O         3.027593         2.091659         0.749007
 C         2.500594         0.830402         0.951692
 O         2.267929         0.235050        -1.179074
 H        -0.393144        -0.014454         1.074126
 H        -0.426484         1.045464        -0.416682
 H        -0.457222        -0.695466        -0.602234
 H         2.497087        -1.595914         1.405275
 H         2.369843        -2.104369        -0.238004
 H         5.033996         0.215928         0.899892
 H         5.289023         0.117886        -0.896937
 H         5.000304         2.688763         0.060658
 H         3.856393         2.213022        -1.071389
 H         2.417439         0.408034         1.936871
