19
Iteration:  3598charge 0 multiplicity 1
 C         0.072086         0.343528         0.031463
 C         1.512835        -0.026407         0.136567
 C         2.366314        -1.370287         0.310371
 C         3.235524        -0.120076        -0.092378
 C         4.604857         0.455937        -0.159909
 C         4.042468         2.082050        -0.152469
 O         2.916655         2.143285         0.730897
 C         2.664825         0.806002         1.006916
 O         2.356370         0.172434        -1.149099
 H        -0.349763        -0.167309         0.888072
 H        -0.243675         1.420556         0.040263
 H        -0.351185        -0.116702        -0.903844
 H         2.399350        -1.805267         1.309908
 H         2.117263        -2.173310        -0.452570
 H         5.203428         0.091948         0.859024
 H         5.267977         0.316046        -1.052774
 H         4.796743         2.812018         0.100623
 H         3.628173         2.136505        -1.120925
 H         2.702004         0.436231         2.090631
