19
Iteration:   105charge 0 multiplicity 1
 C        -0.011078         0.123296        -0.153212
 C         1.478377         0.156499         0.136515
 C         2.275398        -1.278967         0.420646
 C         3.297537        -0.200738         0.003963
 C         4.585151         0.510294        -0.393440
 C         4.260944         2.061554        -0.075964
 O         3.004752         2.103480         0.846139
 C         2.589097         0.742133         0.989772
 O         2.275071         0.274208        -1.051142
 H        -0.533992        -0.521917         0.628793
 H        -0.712738         0.979949        -0.423999
 H        -0.022245        -0.609401        -1.009799
 H         2.308099        -1.849275         1.384491
 H         2.112364        -1.934762        -0.496568
 H         5.612321         0.260982         0.110800
 H         4.755780         0.652647        -1.544615
 H         5.097774         2.609892         0.438064
 H         3.837472         2.716874        -0.867441
 H         2.887382         0.337400         1.969093
