19
Iteration:   758
 C        -0.035475         0.165106         0.114778
 C         1.450931         0.026193         0.077371
 C         2.387456        -1.315511         0.163520
 C         3.200615        -0.073389        -0.017505
 C         4.626515         0.437533        -0.197483
 C         4.330967         2.039538         0.087210
 O         2.924519         2.157599         0.623842
 C         2.490151         0.734201         0.992225
 O         2.357776         0.321135        -1.165968
 H        -0.293254        -0.116359         1.165446
 H        -0.562495         1.087566        -0.242617
 H        -0.508620        -0.662758        -0.516312
 H         2.430314        -1.879795         1.124605
 H         2.326067        -2.077452        -0.705665
 H         5.351726         0.009310         0.502407
 H         4.970190         0.394988        -1.341301
 H         5.021691         2.453854         0.829682
 H         4.398353         2.618926        -0.836999
 H         2.458194         0.406533         2.083302
