19
Iteration:   405
 C         0.092410         0.289076        -0.124971
 C         1.562534        -0.012848         0.127232
 C         2.282366        -1.362852         0.282205
 C         3.280907        -0.078148         0.016686
 C         4.581910         0.643399        -0.398796
 C         4.239496         2.036647        -0.010617
 O         2.920619         1.977471         0.780102
 C         2.596678         0.643632         1.100381
 O         2.248831         0.303163        -1.070491
 H        -0.595741         0.239269         0.764004
 H         0.129247         1.245753        -0.714215
 H        -0.318244        -0.527628        -0.786269
 H         2.294684        -1.911552         1.247169
 H         2.111089        -2.008054        -0.623193
 H         5.360332         0.442967         0.460649
 H         4.773088         0.392582        -1.439713
 H         4.882834         2.704964         0.616582
 H         3.889202         2.559114        -0.947989
 H         2.650751         0.511312         2.206445
