19
Iteration:  1897charge 0 multiplicity 1
 C         0.002615         0.227339         0.064428
 C         1.489950        -0.013940         0.136231
 C         2.421980        -1.289610         0.333597
 C         3.257739        -0.069881        -0.200943
 C         4.615743         0.571370        -0.385127
 C         4.261148         2.039076         0.183725
 O         2.921942         2.076559         0.712183
 C         2.573585         0.733475         0.936060
 O         2.186992         0.187082        -1.162827
 H        -0.429029         0.210337         1.086818
 H        -0.116041         1.201832        -0.440700
 H        -0.459795        -0.595838        -0.423811
 H         2.717868        -1.508021         1.324756
 H         2.290996        -2.094046        -0.304040
 H         5.345167         0.051220         0.232928
 H         5.004632         0.554483        -1.414205
 H         5.072477         2.244096         0.978689
 H         4.167439         2.770390        -0.599864
 H         2.705461         0.620176         1.982819
