19
Iteration:  4381
 C        -0.043920         0.031629        -0.110871
 C         1.387207        -0.048323         0.061870
 C         2.404313        -1.269969         0.458806
 C         3.231577        -0.087638        -0.007437
 C         4.615726         0.548346        -0.288680
 C         4.215014         2.054966        -0.088279
 O         3.150108         2.079918         0.834593
 C         2.466416         0.898140         0.924916
 O         2.271490         0.277741        -1.133344
 H        -0.664407        -0.038291         0.878494
 H        -0.257865         1.003267        -0.627614
 H        -0.456703        -0.872369        -0.735779
 H         2.605975        -1.265353         1.544806
 H         2.466721        -2.172934        -0.076127
 H         5.307077         0.176946         0.415038
 H         4.957814         0.229015        -1.240995
 H         5.100930         2.551357         0.287034
 H         3.989275         2.541572        -1.050606
 H         2.415387         0.651272         2.019959
