19
Iteration:  2003charge 0 multiplicity 1
 C        -0.093812         0.049620         0.004938
 C         1.409829        -0.017823         0.178699
 C         2.415864        -1.241926         0.280586
 C         3.254784        -0.052671        -0.140469
 C         4.705380         0.535660        -0.263184
 C         4.245121         2.021924        -0.087100
 O         3.094084         2.120560         0.839391
 C         2.569554         0.791217         1.020446
 O         2.154501         0.256594        -1.163933
 H        -0.798814        -0.489106         0.708054
 H        -0.511703         1.114476        -0.004799
 H        -0.225610        -0.258979        -1.017546
 H         2.451342        -1.623444         1.391223
 H         2.212166        -2.065281        -0.383710
 H         5.307665         0.112833         0.555234
 H         5.140436         0.442037        -1.277465
 H         4.962778         2.629923         0.388617
 H         4.086876         2.574092        -1.061655
 H         2.840038         0.548839         2.006220
