19
Iteration:    86charge 0 multiplicity 1
 C        -0.028008         0.137586        -0.096254
 C         1.447001        -0.049939         0.206534
 C         2.308147        -1.298276         0.299570
 C         3.288697        -0.057654        -0.049193
 C         4.650695         0.543051        -0.325526
 C         4.224693         2.036728        -0.042186
 O         2.988274         2.070149         0.712013
 C         2.623233         0.756698         1.059958
 O         2.249467         0.312989        -1.054061
 H        -0.665248         0.015207         0.762845
 H        -0.051927         1.184688        -0.415702
 H        -0.301372        -0.518167        -0.891864
 H         2.421362        -1.676793         1.305168
 H         2.096285        -2.038994        -0.471337
 H         5.444943         0.178345         0.310563
 H         5.020399         0.338951        -1.396439
 H         4.983260         2.535274         0.582470
 H         3.997534         2.545914        -1.077573
 H         2.599868         0.538154         2.171034
