19
Iteration:   412charge 0 multiplicity 1
 C         0.078760         0.255602        -0.103038
 C         1.478839        -0.000849         0.154891
 C         2.280774        -1.358161         0.230375
 C         3.295760        -0.092620        -0.032470
 C         4.661343         0.574360        -0.313203
 C         4.248666         2.126381        -0.056931
 O         2.936925         1.997422         0.783972
 C         2.569059         0.695291         1.117254
 O         2.230193         0.282040        -1.047933
 H        -0.593591         0.288240         0.746033
 H        -0.009997         1.057215        -0.821297
 H        -0.160232        -0.577612        -0.792895
 H         2.310294        -1.858340         1.174503
 H         2.081054        -1.991616        -0.665047
 H         5.396488         0.090656         0.288498
 H         4.941790         0.550803        -1.396180
 H         4.905362         2.658403         0.563717
 H         3.858421         2.707342        -0.900756
 H         2.759923         0.252480         2.110689
