19
Iteration:  2802charge 0 multiplicity 1
 C         0.060073         0.169988        -0.018854
 C         1.483767        -0.006062         0.104550
 C         2.360510        -1.353672         0.277674
 C         3.291688        -0.024742         0.041169
 C         4.560864         0.553389        -0.346405
 C         4.167280         2.007558        -0.135577
 O         2.956387         2.030676         0.734888
 C         2.517923         0.770644         1.004759
 O         2.366615         0.362137        -1.016814
 H        -0.284215         0.135018         1.005996
 H        -0.375300         1.170988        -0.299095
 H        -0.449569        -0.677830        -0.587899
 H         2.328531        -2.060482         1.124662
 H         2.445747        -1.977142        -0.595096
 H         5.273867         0.096742         0.375646
 H         4.882464         0.091539        -1.331295
 H         4.906661         2.422311         0.689346
 H         3.915622         2.571336        -1.016462
 H         2.410087         0.593691         2.055514
