19
Iteration:  3489
 C        -0.064371         0.059078         0.067570
 C         1.438495        -0.048361         0.123171
 C         2.409570        -1.300950         0.321378
 C         3.146200        -0.029063        -0.101858
 C         4.658175         0.435922        -0.242660
 C         4.414193         2.049994         0.066842
 O         3.001732         2.172200         0.639339
 C         2.472699         0.891449         0.938646
 O         2.196465         0.235430        -1.160516
 H        -0.569282         0.072528         1.057531
 H        -0.163819         1.021796        -0.442985
 H        -0.397245        -0.743913        -0.607594
 H         2.642216        -1.609891         1.307845
 H         2.365998        -2.100096        -0.413719
 H         5.422089        -0.088232         0.513247
 H         5.162106         0.340705        -1.202496
 H         5.156514         2.558430         0.788026
 H         4.398078         2.722409        -0.776918
 H         2.626788         0.660711         2.067479
