19
Iteration:  2993charge 0 multiplicity 1
 C        -0.075947        -0.008688         0.063902
 C         1.474074         0.105031         0.096771
 C         2.301713        -1.145475         0.298671
 C         3.314316        -0.127300        -0.101145
 C         4.612764         0.507753        -0.303769
 C         4.288683         2.029815         0.062735
 O         3.003170         2.065161         0.672236
 C         2.562656         0.826973         0.942488
 O         2.270121         0.272291        -1.081061
 H        -0.374300        -0.050808         1.119622
 H        -0.592720         0.869791        -0.311221
 H        -0.384720        -0.915408        -0.519688
 H         2.388366        -1.725972         1.259867
 H         2.082719        -1.758142        -0.553325
 H         5.300477         0.037795         0.309246
 H         4.965609         0.391025        -1.301549
 H         5.118164         2.321696         0.700188
 H         4.284083         2.679258        -0.851792
 H         2.624485         0.549618         2.007357
