19
Iteration:  1389
 C        -0.105735         0.228844         0.110363
 C         1.460737        -0.059477         0.047242
 C         2.429792        -1.372488         0.220404
 C         3.351964        -0.207269        -0.054109
 C         4.637436         0.526275        -0.281985
 C         4.185959         1.990047         0.039158
 O         2.913606         2.120571         0.637337
 C         2.524999         0.814981         1.032125
 O         2.351298         0.325416        -1.105062
 H        -0.340808         0.244175         1.213189
 H        -0.178003         1.315025        -0.228125
 H        -0.612954        -0.491554        -0.562620
 H         2.531966        -1.778523         1.276065
 H         2.141566        -1.985002        -0.596003
 H         5.412096         0.129567         0.294752
 H         4.901426         0.464792        -1.396922
 H         4.892003         2.512573         0.738423
 H         4.266113         2.790917        -0.790793
 H         2.449775         0.657983         2.207627
