19
Iteration:  4623
 C        -0.130043         0.160665         0.125869
 C         1.390747        -0.058214        -0.010436
 C         2.372454        -1.281655         0.347015
 C         3.292846        -0.052611         0.006307
 C         4.635041         0.573355        -0.214236
 C         4.335464         2.090202         0.137481
 O         2.986971         2.210449         0.567614
 C         2.470689         0.803761         0.846482
 O         2.352921         0.059720        -1.160238
 H        -0.219273        -0.016960         1.239872
 H        -0.441042         1.227502        -0.183551
 H        -0.659850        -0.662913        -0.419101
 H         2.364908        -1.712385         1.339044
 H         2.408120        -2.086156        -0.488076
 H         5.446463         0.117137         0.325020
 H         4.905319         0.258856        -1.183054
 H         4.875373         2.592874         0.892751
 H         4.410144         2.642926        -0.802147
 H         2.588245         0.541229         1.924500
