19
Iteration:  3433
 C         0.053658         0.297070         0.073946
 C         1.491753        -0.018418         0.057736
 C         2.305635        -1.362428         0.415474
 C         3.300353        -0.093958        -0.025417
 C         4.570086         0.623920        -0.312919
 C         4.255018         2.016367         0.047131
 O         2.868605         2.058648         0.589780
 C         2.491353         0.733441         0.922092
 O         2.393272         0.181345        -1.119329
 H        -0.435127        -0.075940         1.046606
 H        -0.069812         1.364253         0.016295
 H        -0.515883        -0.115864        -0.753168
 H         2.521831        -1.714519         1.419442
 H         2.181261        -2.049787        -0.345287
 H         5.447069         0.210585         0.379136
 H         4.915084         0.621719        -1.344185
 H         4.951270         2.548846         0.781615
 H         4.089176         2.588837        -0.859475
 H         2.632427         0.473747         2.023279
