19
Iteration:  1433
 C         0.025622         0.084910         0.030892
 C         1.449751        -0.018267         0.199262
 C         2.259961        -1.338878         0.316580
 C         3.285522        -0.068836        -0.147613
 C         4.631281         0.520628        -0.323771
 C         4.228168         2.038133         0.125235
 O         2.991594         2.137474         0.680431
 C         2.628470         0.836863         0.943567
 O         2.225776         0.288843        -1.168444
 H        -0.600479        -0.432184         0.800121
 H        -0.455252         1.107271         0.095805
 H        -0.198418        -0.384212        -0.963117
 H         2.360418        -1.650701         1.393876
 H         2.141528        -2.154614        -0.344895
 H         5.239806         0.122437         0.424949
 H         5.271573         0.346392        -1.233372
 H         5.087960         2.452327         0.732224
 H         4.363832         2.713036        -0.806402
 H         2.725210         0.459971         2.009576
