19
Iteration:  1875charge 0 multiplicity 1
 C        -0.058848         0.153397         0.077861
 C         1.440865         0.037868         0.006484
 C         2.477595        -1.380481         0.358429
 C         3.272927        -0.095334         0.009077
 C         4.545936         0.554791        -0.357631
 C         4.333419         2.069998         0.049819
 O         2.991641         2.107584         0.758617
 C         2.514317         0.713111         0.910775
 O         2.235290         0.280887        -1.162380
 H        -0.507605        -0.003990         1.088475
 H        -0.229907         1.218015        -0.226775
 H        -0.621843        -0.480522        -0.561419
 H         2.530316        -1.728975         1.362080
 H         2.461032        -2.076836        -0.407481
 H         5.512708         0.182632        -0.069055
 H         4.588417         0.477371        -1.469193
 H         5.044046         2.237797         0.922036
 H         4.281211         2.768762        -0.774160
 H         2.518274         0.600557         1.971519
