19
Iteration:  3710
 C        -0.119844        -0.104683         0.042696
 C         1.374935         0.060834         0.008027
 C         2.348898        -1.199059         0.372266
 C         3.186376        -0.010921        -0.050031
 C         4.617911         0.459098        -0.311039
 C         4.344546         1.993256         0.071175
 O         3.108855         2.133469         0.659669
 C         2.535398         0.866956         0.971373
 O         2.307256         0.307666        -1.141286
 H        -0.318764        -0.272046         1.099914
 H        -0.601088         0.851395        -0.185678
 H        -0.531773        -0.930437        -0.547814
 H         2.490537        -1.539295         1.393934
 H         2.239081        -1.981414        -0.351493
 H         5.270784        -0.002280         0.525688
 H         5.023146         0.417822        -1.403718
 H         5.076672         2.447453         0.715984
 H         4.291005         2.561814        -0.858344
 H         2.470058         0.661258         2.091690
