19
Iteration:  2550charge 0 multiplicity 1
 C        -0.065090         0.151682         0.081327
 C         1.416561        -0.033178         0.088500
 C         2.417151        -1.280061         0.358779
 C         3.241614        -0.073737        -0.129600
 C         4.661410         0.552348        -0.205153
 C         4.255913         2.040199        -0.115240
 O         3.008142         2.102872         0.766048
 C         2.594254         0.762349         0.891675
 O         2.227132         0.249473        -1.097547
 H        -0.694374        -0.346378         0.799500
 H        -0.262726         1.199438         0.066749
 H        -0.392241        -0.200655        -0.946083
 H         2.662457        -1.829098         1.320821
 H         2.414368        -1.880073        -0.589675
 H         4.945277         0.181021         0.766610
 H         5.259945         0.268979        -1.075605
 H         4.894945         2.660266         0.396323
 H         4.057443         2.459934        -1.086593
 H         2.611528         0.465330         2.044133
