19
Iteration:  3645charge 0 multiplicity 1
 C        -0.021910         0.237244        -0.006717
 C         1.478127        -0.013912         0.090579
 C         2.308511        -1.345040         0.394401
 C         3.304271        -0.161443        -0.024414
 C         4.680000         0.543740        -0.247373
 C         4.136316         2.092856        -0.193948
 O         2.971985         2.088595         0.785947
 C         2.531685         0.722752         1.024924
 O         2.353476         0.289438        -1.145140
 H        -0.386290         0.218121         1.012004
 H        -0.121505         1.275810        -0.383698
 H        -0.578696        -0.409347        -0.697927
 H         2.333397        -1.684685         1.391796
 H         2.317633        -2.176824        -0.265638
 H         5.438010         0.164911         0.529702
 H         5.102860         0.204066        -1.297381
 H         4.836304         2.863363         0.187629
 H         3.799056         2.245534        -1.246294
 H         2.573246         0.387285         2.105250
