19
Iteration:  2625charge 0 multiplicity 1
 C         0.023604         0.225093        -0.023930
 C         1.496920        -0.002402         0.103495
 C         2.369311        -1.319521         0.374482
 C         3.299994        -0.049521        -0.019652
 C         4.639453         0.562213        -0.291248
 C         4.132196         2.068915        -0.122000
 O         3.007403         2.067525         0.856517
 C         2.522886         0.733396         0.929132
 O         2.276661         0.196511        -1.147651
 H        -0.507145         0.054464         0.982372
 H        -0.228224         1.201346        -0.436851
 H        -0.560853        -0.590274        -0.615634
 H         2.276241        -1.813991         1.407335
 H         2.264068        -1.984568        -0.541870
 H         5.323430         0.383017         0.577461
 H         5.108657         0.338693        -1.269572
 H         4.985457         2.806472         0.280645
 H         3.801304         2.521165        -1.028228
 H         2.705482         0.289616         1.938184
