19
Iteration:  4234charge 0 multiplicity 1
 C         0.030175         0.016260        -0.110323
 C         1.485300         0.005603         0.219905
 C         2.426470        -1.272540         0.320641
 C         3.240053        -0.120726        -0.032539
 C         4.603036         0.367234        -0.390333
 C         4.281810         1.956647        -0.003111
 O         2.926688         2.206042         0.650947
 C         2.475616         0.858164         1.064569
 O         2.240481         0.440196        -0.978420
 H        -0.744140         0.011109         0.655185
 H        -0.165394         0.926775        -0.793189
 H        -0.112031        -0.896685        -0.737026
 H         2.637131        -1.656549         1.280066
 H         2.515394        -2.131845        -0.439749
 H         5.490890        -0.012065         0.270442
 H         4.691697         0.179651        -1.536114
 H         5.117374         2.382631         0.503860
 H         4.418736         2.452980        -0.908202
 H         2.481985         0.739279         2.163002
