19
Iteration:  3019
 C        -0.041308         0.020999        -0.019783
 C         1.458765        -0.135142         0.176826
 C         2.419471        -1.282511         0.322999
 C         3.267166        -0.055416        -0.080279
 C         4.591525         0.489286        -0.240160
 C         4.327985         1.997683        -0.067237
 O         3.035108         2.118774         0.708084
 C         2.516143         0.822430         0.936527
 O         2.142561         0.474439        -1.052402
 H        -0.626092         0.172643         0.884275
 H        -0.161350         1.019254        -0.549061
 H        -0.394710        -0.802790        -0.713055
 H         2.680505        -1.676258         1.363921
 H         2.139289        -2.078451        -0.450178
 H         5.356765         0.027371         0.580833
 H         5.003655         0.172769        -1.291646
 H         5.236845         2.365775         0.446241
 H         4.379927         2.480362        -1.017355
 H         2.582459         0.599991         1.947329
