19
Iteration:   594charge 0 multiplicity 1
 C        -0.037066         0.209787         0.028339
 C         1.496626         0.047288         0.069217
 C         2.424587        -1.331047         0.206270
 C         3.273953        -0.109861        -0.091858
 C         4.611874         0.527952        -0.212077
 C         4.163583         1.968847        -0.088443
 O         3.007528         2.057964         0.859037
 C         2.479112         0.733053         0.991652
 O         2.342051         0.348130        -1.135225
 H        -0.473273         0.214916         1.034929
 H        -0.214207         1.114782        -0.555341
 H        -0.537580        -0.586775        -0.542702
 H         2.669501        -1.729592         1.172595
 H         1.953892        -2.136293        -0.348647
 H         5.195011         0.372003         0.692117
 H         5.201232         0.564129        -1.159251
 H         4.979784         2.547771         0.368696
 H         3.852485         2.361098        -1.040408
 H         2.355942         0.280377         1.996815
