19
Iteration:   957
 C         0.000607        -0.004594        -0.019106
 C         1.403946         0.071985         0.153814
 C         2.252249        -1.269566         0.269355
 C         3.220546        -0.099054        -0.020225
 C         4.664866         0.546369        -0.214195
 C         4.341808         2.026168        -0.075672
 O         2.995145         2.067181         0.652862
 C         2.568693         0.783593         0.965228
 O         2.306679         0.400030        -1.064377
 H        -0.516646        -0.150464         0.983214
 H        -0.462650         0.888417        -0.492804
 H        -0.257118        -0.927761        -0.608258
 H         2.325374        -1.947415         1.280991
 H         1.690159        -1.776548        -0.513187
 H         5.255221         0.077901         0.598053
 H         5.132427         0.140236        -1.162676
 H         5.049346         2.341421         0.694037
 H         4.344432         2.754719        -0.882042
 H         2.703083         0.525932         2.009493
