19
Iteration:  4032
 C        -0.051429        -0.014977         0.047744
 C         1.482893         0.026198         0.109658
 C         2.366948        -1.243646         0.292378
 C         3.254960        -0.043642        -0.103138
 C         4.620746         0.507641        -0.102984
 C         4.310520         2.014357        -0.029864
 O         2.998066         2.118922         0.749486
 C         2.573774         0.797306         0.872313
 O         2.189592         0.378358        -1.174858
 H        -0.510495        -0.041583         0.986631
 H        -0.462397         0.819604        -0.494659
 H        -0.312131        -0.937559        -0.477278
 H         2.608812        -1.641962         1.263621
 H         2.141985        -1.917078        -0.544410
 H         5.195810         0.132436         0.855335
 H         5.124464         0.026328        -0.941714
 H         5.121814         2.503491         0.392672
 H         4.184672         2.235288        -1.093335
 H         2.723815         0.409187         1.859255
