19
Iteration:  1655charge 0 multiplicity 1
 C        -0.034660        -0.026626         0.117688
 C         1.434505         0.059864         0.056898
 C         2.290871        -1.261688         0.201547
 C         3.242539        -0.052629        -0.071293
 C         4.678610         0.514737        -0.215622
 C         4.299065         1.953384        -0.067636
 O         3.049532         2.171711         0.781678
 C         2.564270         0.821411         0.950453
 O         2.209686         0.334282        -1.121129
 H        -0.483236        -0.547437         0.992681
 H        -0.512810         0.979513         0.014315
 H        -0.376968        -0.622907        -0.771601
 H         2.369076        -1.686274         1.215887
 H         2.462375        -2.067292        -0.572111
 H         5.066922         0.017071         0.665979
 H         5.238121         0.274087        -1.101830
 H         5.149067         2.561522         0.388266
 H         4.095646         2.490543        -1.033439
 H         2.663814         0.465476         2.003426
