19
Iteration:  4595
 C         0.002697         0.034028        -0.063760
 C         1.449816        -0.006664         0.105671
 C         2.394550        -1.256113         0.513408
 C         3.228237        -0.071388        -0.090924
 C         4.606368         0.537647        -0.378435
 C         4.358898         1.979171         0.198890
 O         2.978856         2.219306         0.612741
 C         2.498019         0.840002         0.915059
 O         2.193452         0.193976        -1.157005
 H        -0.556705         0.141660         0.836265
 H        -0.218297         0.866677        -0.722420
 H        -0.222542        -0.947313        -0.465598
 H         2.584951        -1.316838         1.625850
 H         2.297538        -2.115709        -0.080535
 H         5.414313         0.018170         0.190291
 H         4.854891         0.355241        -1.489536
 H         4.926949         2.368413         1.106789
 H         4.489539         2.686456        -0.673057
 H         2.725615         0.704485         2.009223
