19
Iteration:  3615charge 0 multiplicity 1
 C         0.036888         0.330450         0.108793
 C         1.508593         0.018384         0.067449
 C         2.315116        -1.282270         0.343200
 C         3.319128        -0.186860         0.014868
 C         4.616039         0.597436        -0.192748
 C         4.062754         2.051227        -0.243559
 O         2.975884         2.071642         0.843862
 C         2.463433         0.725755         0.951999
 O         2.435978         0.116749        -1.245655
 H        -0.369117         0.021127         1.128321
 H         0.081052         1.398654         0.107947
 H        -0.494860        -0.042593        -0.744079
 H         2.358946        -1.735394         1.393090
 H         2.279880        -2.004212        -0.428474
 H         5.160547         0.533940         0.643737
 H         5.087479         0.239221        -1.088897
 H         4.830572         2.755106         0.152048
 H         3.679836         2.365871        -1.274341
 H         2.460825         0.446582         1.972731
