19
Iteration:  3589
 C         0.043545         0.273591        -0.002520
 C         1.498296        -0.013352         0.159231
 C         2.351998        -1.325384         0.326090
 C         3.315106        -0.148951        -0.054378
 C         4.663248         0.523314        -0.185491
 C         4.083695         1.973326        -0.121700
 O         2.920051         2.126207         0.685522
 C         2.596492         0.759865         0.926076
 O         2.258989         0.257552        -1.051757
 H        -0.517097        -0.113431         0.796601
 H         0.030263         1.398177         0.021119
 H        -0.275334        -0.128418        -0.996590
 H         2.583043        -1.715028         1.252935
 H         2.186618        -2.073663        -0.490397
 H         5.225240         0.261978         0.817345
 H         5.275465         0.314478        -1.122262
 H         4.841274         2.724017         0.201701
 H         3.844644         2.181684        -1.178530
 H         2.830887         0.550161         2.027847
