19
Iteration:  2152
 C        -0.053394        -0.016809         0.060750
 C         1.486357         0.068034         0.116094
 C         2.296244        -1.270873         0.330771
 C         3.312508        -0.136396        -0.031605
 C         4.654343         0.467558        -0.354278
 C         4.357399         2.021873         0.072412
 O         2.910436         2.127696         0.569839
 C         2.563346         0.817636         0.988305
 O         2.235688         0.389819        -1.072161
 H        -0.590679        -0.549695         0.848417
 H        -0.467619         0.983209        -0.130706
 H        -0.305209        -0.748428        -0.746691
 H         2.395538        -1.618642         1.342491
 H         2.175097        -2.087750        -0.376830
 H         5.595956         0.074271         0.084610
 H         4.790048         0.585627        -1.473552
 H         5.018864         2.270509         0.989467
 H         4.428019         2.735024        -0.811511
 H         2.739812         0.721645         2.153900
