19
Iteration:  1744
 C        -0.005608         0.280076        -0.053126
 C         1.506854        -0.035378         0.152814
 C         2.342548        -1.368995         0.320833
 C         3.295009        -0.104346        -0.128261
 C         4.604390         0.506995        -0.354152
 C         4.115826         2.075760        -0.057668
 O         2.938046         2.020212         0.789518
 C         2.647719         0.713071         1.021138
 O         2.274640         0.314863        -1.046722
 H        -0.435432         0.289957         1.017192
 H        -0.114930         1.381944        -0.370300
 H        -0.492121        -0.345382        -0.825233
 H         2.819812        -1.836132         1.275948
 H         2.277970        -2.106605        -0.487595
 H         5.317514         0.279954         0.488337
 H         5.180554         0.536155        -1.353847
 H         4.883088         2.774785         0.533358
 H         3.792722         2.427500        -1.061461
 H         2.805641         0.475368         2.119206
