19
Iteration:  2504charge 0 multiplicity 1
 C        -0.069944        -0.011379         0.032163
 C         1.392895         0.042087         0.173383
 C         2.345230        -1.227339         0.295370
 C         3.263254        -0.076692        -0.002897
 C         4.607362         0.481582        -0.396977
 C         4.394914         2.058800         0.006278
 O         2.975245         2.131869         0.691895
 C         2.497835         0.817154         0.947132
 O         2.354499         0.286519        -1.101555
 H        -0.378209        -0.376365         1.080572
 H        -0.544837         0.969441        -0.117458
 H        -0.437547        -0.761035        -0.651201
 H         2.251568        -1.594502         1.328243
 H         2.041860        -2.030319        -0.487604
 H         5.430733         0.083464         0.208607
 H         4.615908         0.303211        -1.468316
 H         5.178322         2.346114         0.659499
 H         4.263759         2.743905        -0.704315
 H         2.651142         0.668222         2.085902
