19
Iteration:  1944
 C        -0.072833         0.113339         0.184472
 C         1.472774         0.056685         0.093926
 C         2.476384        -1.268322         0.240106
 C         3.275623        -0.083606        -0.049863
 C         4.597786         0.484405        -0.338947
 C         4.350203         2.007656         0.097589
 O         2.876524         2.057230         0.573944
 C         2.460864         0.771487         0.941933
 O         2.316008         0.365264        -1.089224
 H        -0.282234        -0.089600         1.215104
 H        -0.386525         1.087097        -0.145106
 H        -0.598686        -0.762365        -0.368521
 H         2.474411        -1.779038         1.200125
 H         2.280837        -1.884901        -0.704770
 H         5.416790        -0.057441         0.215566
 H         4.911350         0.321453        -1.387962
 H         4.939509         2.245835         0.983834
 H         4.399463         2.683586        -0.734015
 H         2.555584         0.552957         1.968673
