19
Iteration:  3636
 C        -0.030177         0.313287         0.005194
 C         1.482789        -0.054506        -0.017869
 C         2.294855        -1.361963         0.415023
 C         3.358073        -0.132714        -0.028818
 C         4.734114         0.564614        -0.220200
 C         4.080528         2.074425        -0.156139
 O         3.022341         2.036451         0.775255
 C         2.498877         0.726755         0.972691
 O         2.346488         0.244256        -1.107552
 H        -0.224201         0.096601         1.103791
 H        -0.219857         1.360319        -0.104717
 H        -0.696245        -0.328644        -0.543333
 H         2.154311        -1.650748         1.470516
 H         2.360338        -2.138462        -0.265668
 H         5.445884         0.248414         0.468311
 H         5.027683         0.555630        -1.291375
 H         4.681619         3.002545         0.059705
 H         3.637164         2.210600        -1.228149
 H         2.434397         0.636957         2.044590
