19
Iteration:  4292charge 0 multiplicity 1
 C         0.042205         0.191905         0.131332
 C         1.474294        -0.005643         0.067729
 C         2.355536        -1.282730         0.467534
 C         3.239203        -0.084948        -0.206738
 C         4.596260         0.583129        -0.226319
 C         4.339945         2.045081         0.172486
 O         2.925076         2.153143         0.636448
 C         2.510473         0.811253         0.815402
 O         2.251392         0.060724        -1.266672
 H        -0.353737        -0.318469         1.061292
 H        -0.254400         1.293604         0.221022
 H        -0.646794        -0.201459        -0.706579
 H         2.712089        -1.659069         1.464002
 H         2.316581        -1.988691        -0.322059
 H         5.163528         0.185131         0.545995
 H         5.197907         0.419119        -1.132699
 H         4.861423         2.373621         1.077762
 H         4.266734         2.734747        -0.668162
 H         2.736544         0.688639         1.904776
