19
Iteration:  1002
 C        -0.058371         0.134310        -0.076184
 C         1.456816         0.029713         0.063074
 C         2.437718        -1.257254         0.356537
 C         3.266151        -0.052557        -0.040381
 C         4.565426         0.517034        -0.329816
 C         4.281728         1.959138        -0.016236
 O         3.079407         2.078069         0.823933
 C         2.430234         0.856454         0.999500
 O         2.251876         0.227476        -1.152546
 H        -0.322450         0.287276         1.018840
 H        -0.309871         1.124544        -0.536561
 H        -0.657723        -0.699648        -0.469403
 H         2.711583        -1.781832         1.425207
 H         2.447410        -2.065669        -0.397730
 H         5.377915         0.177312         0.431078
 H         4.920376         0.367649        -1.354952
 H         5.098094         2.433295         0.555927
 H         4.082539         2.548928        -0.876090
 H         2.318185         0.528595         2.018415
