19
Iteration:   153
 C        -0.136212         0.075309        -0.051419
 C         1.444915         0.048416         0.068293
 C         2.433541        -1.299706         0.255716
 C         3.290399        -0.075698        -0.056909
 C         4.656925         0.468174        -0.150592
 C         4.212507         2.004477        -0.094463
 O         3.140434         2.136249         0.803175
 C         2.547120         0.815647         0.963606
 O         2.188101         0.299353        -1.106766
 H        -0.558583        -0.509488         0.727105
 H        -0.532230         1.034799         0.119484
 H        -0.631321        -0.268636        -0.934332
 H         2.679863        -1.685740         1.232377
 H         2.343701        -1.974415        -0.558920
 H         5.086622         0.199894         0.768543
 H         5.223413         0.093345        -1.060304
 H         4.885537         2.717995         0.405672
 H         3.825574         2.418889        -1.073685
 H         2.559000         0.619411         2.056854
