19
Iteration:  3422charge 0 multiplicity 1
 C         0.034401         0.312676         0.046594
 C         1.499100         0.003504         0.075691
 C         2.415287        -1.308296         0.369198
 C         3.303666        -0.204480         0.019561
 C         4.620470         0.556132        -0.265772
 C         4.126115         2.078958         0.013925
 O         2.919866         2.091705         0.676564
 C         2.574116         0.797159         0.896080
 O         2.262004         0.125364        -1.193134
 H        -0.460979        -0.107301         1.002114
 H        -0.112877         1.377328         0.037139
 H        -0.412460        -0.162924        -0.821696
 H         2.250929        -1.736459         1.349304
 H         2.385336        -2.060151        -0.328853
 H         5.528393         0.315046         0.467243
 H         4.877598         0.318289        -1.301967
 H         4.926916         2.411855         0.803831
 H         4.276736         2.800604        -0.784703
 H         2.472923         0.586890         2.007113
