19
Iteration:  3133
 C        -0.005300         0.208587         0.010780
 C         1.497133        -0.028944         0.149081
 C         2.341620        -1.301845         0.283215
 C         3.361479        -0.139126         0.035280
 C         4.612303         0.561013        -0.200911
 C         4.252646         2.028320        -0.157732
 O         2.896263         2.024055         0.685482
 C         2.611815         0.731223         0.982420
 O         2.208808         0.351667        -1.076089
 H        -0.728746         0.032095         0.805349
 H        -0.117065         1.229292        -0.249411
 H        -0.218754        -0.382555        -0.859842
 H         2.356576        -1.667766         1.269508
 H         2.379296        -2.009530        -0.455456
 H         5.378696         0.210826         0.498681
 H         5.025077         0.294560        -1.149225
 H         4.988149         2.648367         0.302411
 H         3.761187         2.527856        -1.012245
 H         2.952952         0.443977         1.913562
