19
Iteration:  3627charge 0 multiplicity 1
 C         0.029372         0.345363         0.078264
 C         1.458214        -0.049651        -0.046095
 C         2.310121        -1.311472         0.356730
 C         3.348587        -0.112783         0.052188
 C         4.687081         0.636649        -0.225689
 C         4.026294         1.990182        -0.144983
 O         3.032041         2.009806         0.793161
 C         2.516146         0.761263         0.857168
 O         2.381333         0.163670        -1.103087
 H        -0.351741        -0.013565         1.114700
 H        -0.168979         1.390139        -0.004863
 H        -0.691233        -0.143760        -0.572052
 H         2.266552        -1.606342         1.490502
 H         2.125260        -2.145446        -0.315588
 H         5.424832         0.539435         0.458677
 H         5.200344         0.527034        -1.129007
 H         4.777967         2.775667         0.083276
 H         3.543468         2.275972        -1.130462
 H         2.282836         0.551250         1.867426
