19
Iteration:  1842
 C        -0.033097         0.012302         0.039274
 C         1.480594         0.067168         0.193133
 C         2.293922        -1.290646         0.274033
 C         3.256604        -0.104387        -0.068640
 C         4.632775         0.510268        -0.273688
 C         4.233702         1.995023        -0.041610
 O         2.937674         2.121303         0.699578
 C         2.651716         0.750013         0.980112
 O         2.278760         0.397264        -1.108212
 H        -0.542731        -0.406996         0.948148
 H        -0.299034         1.099195        -0.105627
 H        -0.149522        -0.484653        -0.892181
 H         2.344683        -1.844651         1.192266
 H         2.113959        -1.932284        -0.547776
 H         5.309380         0.108467         0.472023
 H         4.841671         0.319625        -1.361526
 H         5.185330         2.442377         0.457953
 H         4.304012         2.707587        -0.860819
 H         2.754626         0.474850         2.041304
