19
Iteration:  4065
 C        -0.115651        -0.011786         0.040144
 C         1.431887         0.006092        -0.033787
 C         2.305786        -1.199340         0.355616
 C         3.262932        -0.057247        -0.039216
 C         4.622698         0.540942        -0.239444
 C         4.288158         2.064943        -0.023972
 O         3.146362         2.134780         0.904571
 C         2.513923         0.822775         0.851663
 O         2.298962         0.218760        -1.212626
 H        -0.362534        -0.252335         1.041171
 H        -0.612633         0.901886        -0.209716
 H        -0.536676        -0.812849        -0.572469
 H         2.360308        -1.676613         1.345280
 H         2.201250        -2.036714        -0.328693
 H         5.318776         0.215268         0.656624
 H         4.892908         0.287109        -1.282758
 H         5.016272         2.707807         0.502040
 H         3.937289         2.515233        -0.999462
 H         2.474617         0.553612         1.878438
