19
Iteration:  4451charge 0 multiplicity 1
 C        -0.009147         0.180573        -0.052572
 C         1.473912         0.005734         0.101866
 C         2.388890        -1.308187         0.326598
 C         3.341623        -0.143082         0.065094
 C         4.643568         0.423160        -0.212257
 C         4.064540         1.960225        -0.174978
 O         2.870964         2.108159         0.667463
 C         2.547153         0.805500         1.025101
 O         2.394400         0.385498        -1.050038
 H        -0.352418        -0.137872         0.903443
 H        -0.141490         1.263448        -0.183652
 H        -0.330568        -0.515256        -0.767716
 H         2.274149        -1.525153         1.382756
 H         2.583172        -2.157221        -0.455247
 H         5.544706         0.347931         0.410206
 H         4.909165         0.308968        -1.299572
 H         4.869000         2.620079         0.348467
 H         3.939327         2.332518        -1.234066
 H         2.573262         0.529976         2.108625
