19
Iteration:  4550
 C        -0.084800        -0.061418        -0.073736
 C         1.397005        -0.050826         0.139857
 C         2.338569        -1.321795         0.378060
 C         3.307036        -0.047931         0.068372
 C         4.608942         0.531741        -0.336625
 C         4.453054         1.994023         0.107791
 O         3.017550         2.251427         0.474339
 C         2.458564         0.923755         0.946073
 O         2.249268         0.262764        -0.984046
 H        -0.511944        -0.140738         0.910100
 H        -0.426950         0.857909        -0.618921
 H        -0.235018        -1.015232        -0.562151
 H         2.252773        -1.830850         1.369022
 H         2.234789        -1.952238        -0.521048
 H         5.531817         0.023882        -0.166482
 H         4.636777         0.576971        -1.466916
 H         5.077991         2.127813         1.092234
 H         4.590069         2.836908        -0.656590
 H         2.363269         0.737187         2.053421
