19
Iteration:  4846
 C        -0.115235         0.181878         0.031089
 C         1.492339        -0.026811         0.042284
 C         2.463316        -1.244110         0.444545
 C         3.260658        -0.073914         0.019644
 C         4.630136         0.483476        -0.226359
 C         4.242007         2.022034         0.015777
 O         2.966327         2.123023         0.603459
 C         2.472410         0.808951         0.900451
 O         2.296879         0.172993        -1.188293
 H        -0.511051        -0.217469         1.035127
 H        -0.243866         1.292144        -0.000699
 H        -0.583005        -0.348997        -0.897263
 H         2.720149        -1.469512         1.510396
 H         2.492022        -2.158154        -0.216126
 H         5.245943         0.116674         0.549074
 H         4.971261         0.298586        -1.231683
 H         4.858478         2.545860         0.755542
 H         4.296315         2.742095        -0.828643
 H         2.714797         0.691523         1.977567
