19
Iteration:  3995
 C         0.031256         0.169534         0.006079
 C         1.468508        -0.014901         0.155220
 C         2.364418        -1.357158         0.219741
 C         3.316231        -0.094787         0.092159
 C         4.617436         0.507469        -0.269840
 C         4.261565         2.026246        -0.048989
 O         2.854610         2.121603         0.600548
 C         2.490860         0.755550         0.989831
 O         2.377781         0.329771        -1.037035
 H        -0.424946         0.061832         1.025032
 H        -0.171578         1.195382        -0.345058
 H        -0.391359        -0.569381        -0.663282
 H         2.369957        -2.061644         1.081787
 H         2.136068        -2.009465        -0.639289
 H         5.413028         0.181760         0.318384
 H         4.768480         0.381560        -1.388157
 H         4.950641         2.449225         0.703074
 H         3.998102         2.714488        -0.851286
 H         2.554860         0.584159         2.049103
