19
Iteration:  2868charge 0 multiplicity 1
 C        -0.032000         0.073740         0.060484
 C         1.475377        -0.019769         0.024970
 C         2.371479        -1.269543         0.319886
 C         3.198019        -0.104670        -0.024849
 C         4.591854         0.498385        -0.281712
 C         4.162281         2.054432        -0.086417
 O         3.116456         2.112099         0.880713
 C         2.549215         0.841621         0.931592
 O         2.299584         0.309905        -1.188936
 H        -0.337351        -0.306129         1.051900
 H        -0.417780         1.087242        -0.265403
 H        -0.374776        -0.688717        -0.665627
 H         2.199191        -1.759761         1.253085
 H         2.285235        -1.953239        -0.523920
 H         5.244488         0.219622         0.620327
 H         5.122683         0.293306        -1.256331
 H         5.082767         2.509828         0.452021
 H         3.876938         2.439249        -1.060412
 H         2.395667         0.572707         2.034863
