19
Iteration:   817charge 0 multiplicity 1
 C        -0.047070         0.051776        -0.084348
 C         1.433420         0.033349         0.155817
 C         2.301844        -1.202832         0.281216
 C         3.258567        -0.124308        -0.107576
 C         4.644927         0.512061        -0.208845
 C         4.201076         1.998477        -0.060793
 O         3.094528         2.072598         0.825214
 C         2.578648         0.775196         0.984964
 O         2.271126         0.339651        -1.138258
 H        -0.599481        -0.003798         0.870815
 H        -0.253983         1.046062        -0.498527
 H        -0.353378        -0.782002        -0.708857
 H         2.433495        -1.631058         1.248492
 H         1.980986        -1.824260        -0.483138
 H         5.309524         0.191314         0.643930
 H         5.322796         0.442309        -1.125370
 H         4.974826         2.581835         0.490574
 H         3.893150         2.495215        -1.003055
 H         2.511313         0.416513         2.085756
