19
Iteration:  2458
 C        -0.028210         0.135272         0.112830
 C         1.483380         0.009676         0.191901
 C         2.391260        -1.304596         0.336359
 C         3.263682        -0.013919        -0.181037
 C         4.647263         0.491043        -0.280388
 C         4.324722         2.028752         0.088569
 O         2.925232         2.090824         0.587957
 C         2.565994         0.758336         0.974269
 O         2.160448         0.278159        -1.170569
 H        -0.688445         0.207441         1.021553
 H        -0.172438         1.011743        -0.609448
 H        -0.348978        -0.759917        -0.410877
 H         2.870203        -1.665165         1.253635
 H         2.242878        -2.133759        -0.349151
 H         5.317230         0.143731         0.511382
 H         5.048109         0.565539        -1.313909
 H         4.944331         2.347756         0.930315
 H         4.471013         2.677912        -0.689915
 H         2.682545         0.498590         2.094847
