19
Iteration:  2115charge 0 multiplicity 1
 C        -0.078770         0.187951         0.164048
 C         1.462363        -0.025072         0.067484
 C         2.408372        -1.308226         0.286760
 C         3.302566        -0.151544        -0.096209
 C         4.649758         0.512475        -0.291213
 C         4.260735         2.050493         0.032259
 O         2.927143         2.205930         0.770828
 C         2.523941         0.782838         0.930366
 O         2.275134         0.206254        -1.203914
 H        -0.420243         0.050911         1.192558
 H        -0.358454         1.147565        -0.283460
 H        -0.465292        -0.516110        -0.635818
 H         2.664555        -1.663621         1.361023
 H         2.304734        -2.182245        -0.463527
 H         5.393393        -0.028386         0.307256
 H         5.049916         0.472846        -1.307655
 H         5.073586         2.604477         0.631401
 H         4.198781         2.537876        -0.900928
 H         2.494198         0.447925         1.939680
