19
Iteration:   280charge 0 multiplicity 1
 C        -0.057198         0.010124        -0.072920
 C         1.458321        -0.000567         0.054426
 C         2.326220        -1.286032         0.229781
 C         3.264854        -0.075622         0.019627
 C         4.595768         0.518309        -0.342600
 C         4.256777         1.964727         0.002640
 O         3.050454         2.172391         0.839699
 C         2.540914         0.816284         0.992402
 O         2.297226         0.332653        -1.068001
 H        -0.561032        -0.046085         0.911622
 H        -0.427253         1.022086        -0.431871
 H        -0.332713        -0.756274        -0.828702
 H         2.332856        -1.541623         1.318307
 H         2.169570        -2.047326        -0.500802
 H         5.405305         0.081135         0.214820
 H         4.928531         0.302531        -1.385104
 H         5.079239         2.364417         0.553474
 H         4.070039         2.640466        -0.823728
 H         2.670284         0.589697         2.065968
