19
Iteration:  1574
 C        -0.059381         0.328560         0.016516
 C         1.475060         0.003948         0.062182
 C         2.400099        -1.370064         0.332575
 C         3.348582        -0.103940         0.016396
 C         4.659569         0.624983        -0.334448
 C         4.173565         2.087752        -0.111705
 O         2.955480         1.993605         0.814348
 C         2.536508         0.650864         1.015842
 O         2.307234         0.247094        -1.143465
 H        -0.484009         0.142487         1.018504
 H        -0.302797         1.401006        -0.176991
 H        -0.606393        -0.359495        -0.661729
 H         2.349676        -1.802474         1.364888
 H         2.330540        -2.048314        -0.457629
 H         5.521637         0.125879         0.156535
 H         4.953105         0.341024        -1.391824
 H         4.887391         2.726577         0.500878
 H         3.772717         2.607301        -1.069730
 H         2.493956         0.395563         2.052905
