19
Iteration:  3178charge 0 multiplicity 1
 C        -0.034837        -0.036368         0.107074
 C         1.423477         0.027527         0.011767
 C         2.345359        -1.223927         0.320602
 C         3.249948        -0.022904         0.036970
 C         4.581673         0.453456        -0.235117
 C         4.317038         2.012909        -0.035448
 O         3.067763         2.179631         0.789364
 C         2.536081         0.815221         0.902953
 O         2.252178         0.296666        -1.231364
 H        -0.417491        -0.198686         1.090164
 H        -0.498050         0.914293        -0.202606
 H        -0.404593        -0.835486        -0.559713
 H         2.303970        -1.595511         1.295947
 H         2.381724        -1.918994        -0.490221
 H         5.352772         0.018971         0.361211
 H         4.949631         0.105056        -1.217775
 H         5.038329         2.442866         0.660106
 H         4.174175         2.601039        -1.020579
 H         2.500443         0.594082         1.883103
