19
Iteration:  1398
 C        -0.114190         0.238520         0.125508
 C         1.491947        -0.040386         0.065441
 C         2.451229        -1.321488         0.226603
 C         3.303571        -0.059587         0.106804
 C         4.630096         0.500197        -0.372818
 C         4.201257         1.977119         0.074550
 O         2.950694         2.051807         0.634282
 C         2.482119         0.763442         0.956743
 O         2.365623         0.328288        -1.149508
 H        -0.422724        -0.082111         1.154188
 H        -0.332757         1.306186        -0.116522
 H        -0.680339        -0.411347        -0.566298
 H         2.430455        -1.748121         1.216253
 H         2.561684        -2.065792        -0.540625
 H         5.432321         0.232362         0.285610
 H         4.728448         0.315624        -1.462606
 H         4.847035         2.372477         0.957659
 H         4.153064         2.590343        -0.875073
 H         2.396086         0.764897         2.027261
