19
Iteration:  1841
 C        -0.033660         0.014518         0.037521
 C         1.479243         0.067150         0.195614
 C         2.291447        -1.288932         0.272381
 C         3.257488        -0.111660        -0.065339
 C         4.632700         0.508666        -0.267236
 C         4.232751         2.000482        -0.040036
 O         2.938011         2.119587         0.696135
 C         2.659212         0.749398         0.973637
 O         2.273963         0.403585        -1.106568
 H        -0.526985        -0.412776         0.947914
 H        -0.338492         1.095171        -0.109536
 H        -0.122191        -0.481855        -0.891273
 H         2.368457        -1.836107         1.188430
 H         2.131623        -1.960130        -0.542303
 H         5.294819         0.104076         0.487548
 H         4.839373         0.286101        -1.348736
 H         5.193540         2.457096         0.443060
 H         4.294704         2.734727        -0.888325
 H         2.763002         0.425532         2.038701
