19
Iteration:  3496
 C        -0.121203         0.015014         0.057176
 C         1.400655        -0.113713         0.113430
 C         2.367562        -1.271559         0.371484
 C         3.267195        -0.059995        -0.103419
 C         4.691738         0.459119        -0.270473
 C         4.387777         2.025669         0.084060
 O         3.040013         2.224482         0.690795
 C         2.497117         0.907355         0.866484
 O         2.171894         0.286882        -1.181319
 H        -0.656234         0.025824         1.066837
 H        -0.215317         0.976506        -0.438974
 H        -0.581152        -0.742023        -0.573118
 H         2.603675        -1.608787         1.448197
 H         2.393482        -2.134220        -0.264066
 H         5.269900         0.074082         0.640013
 H         5.180332         0.259648        -1.241786
 H         5.132929         2.340396         0.748184
 H         4.467559         2.633854        -0.843532
 H         2.641445         0.508650         1.909699
