19
Iteration:  2906
 C         0.004081         0.192271         0.053748
 C         1.475724        -0.024314         0.148198
 C         2.319488        -1.352355         0.312576
 C         3.317469        -0.085424        -0.041044
 C         4.596260         0.532264        -0.317548
 C         4.213227         2.046313         0.003657
 O         2.949715         2.029110         0.606359
 C         2.559373         0.744088         0.990879
 O         2.297498         0.342915        -1.086429
 H        -0.615483        -0.257112         0.865011
 H        -0.209972         1.245275        -0.033132
 H        -0.386868        -0.301622        -0.870633
 H         2.407594        -1.846811         1.359375
 H         2.300925        -2.019865        -0.554899
 H         5.354121         0.378269         0.437478
 H         4.947519         0.421202        -1.334561
 H         4.894576         2.362142         0.744770
 H         4.251521         2.897954        -0.710743
 H         2.794451         0.582475         2.004800
