19
Iteration:  2096charge 0 multiplicity 1
 C        -0.021097         0.255954         0.085286
 C         1.458707        -0.005349         0.104271
 C         2.517173        -1.314887         0.337989
 C         3.295624        -0.059516        -0.161716
 C         4.681543         0.537923        -0.183256
 C         4.162495         2.014603        -0.048980
 O         2.970655         2.032673         0.783715
 C         2.529274         0.757118         0.891641
 O         2.171741         0.214781        -1.176305
 H        -0.350801         0.360986         1.091141
 H        -0.250429         1.231670        -0.290091
 H        -0.727228        -0.345885        -0.544703
 H         2.634750        -1.740899         1.300723
 H         2.400516        -2.046501        -0.515814
 H         5.238493         0.257878         0.732703
 H         5.217748         0.518312        -1.162723
 H         4.919993         2.781224         0.412525
 H         3.862475         2.485963        -0.975389
 H         2.811075         0.351628         1.962770
