19
Iteration:   289charge 0 multiplicity 1
 C         0.011134        -0.016965        -0.032238
 C         1.463784        -0.003325         0.001887
 C         2.318873        -1.323346         0.249121
 C         3.219736        -0.088158         0.053716
 C         4.606207         0.500896        -0.308847
 C         4.306193         1.921071        -0.087566
 O         3.036044         2.158753         0.812233
 C         2.472952         0.890340         1.031207
 O         2.300869         0.448485        -1.075085
 H        -0.300679        -0.424852         0.934485
 H        -0.239165         1.042713        -0.319370
 H        -0.405305        -0.812735        -0.666640
 H         2.234056        -2.002095         1.125962
 H         2.130683        -2.028086        -0.580336
 H         5.318077         0.296408         0.490186
 H         4.847928         0.328574        -1.337890
 H         5.130683         2.352837         0.571903
 H         4.184578         2.608524        -0.915263
 H         2.447331         0.420491         2.054280
