19
Iteration:  2327
 C        -0.058580         0.094661         0.016595
 C         1.412300        -0.000999         0.087217
 C         2.302253        -1.186939         0.314694
 C         3.286366        -0.138542         0.000526
 C         4.532892         0.562404        -0.281572
 C         4.140217         1.958254        -0.161034
 O         3.151064         2.075354         0.867390
 C         2.551018         0.811266         0.918079
 O         2.401878         0.286793        -1.095758
 H        -0.343161        -0.431943         0.946029
 H        -0.604315         1.070285        -0.028841
 H        -0.414198        -0.503600        -0.839400
 H         2.475801        -1.598153         1.440609
 H         2.171106        -1.899771        -0.456705
 H         5.499876         0.555773         0.208277
 H         4.832431         0.322613        -1.338074
 H         4.852222         2.753633         0.092758
 H         3.697850         2.277078        -1.062586
 H         2.520894         0.509611         2.000101
