19
Iteration:  3074
 C         0.065340         0.237381         0.077379
 C         1.510748        -0.045488         0.001156
 C         2.204564        -1.273091         0.332110
 C         3.309395        -0.060009        -0.042393
 C         4.699890         0.588341        -0.296461
 C         4.052970         2.069155        -0.151471
 O         3.027090         1.995962         0.804198
 C         2.525836         0.764360         1.017698
 O         2.385754         0.238790        -1.110517
 H        -0.266334        -0.330835         1.000573
 H        -0.282819         1.309717        -0.061863
 H        -0.510914        -0.348487        -0.699844
 H         2.067998        -1.658808         1.411713
 H         2.134810        -2.181820        -0.397383
 H         5.264328         0.208626         0.698399
 H         5.098258         0.348558        -1.344616
 H         4.872576         2.749890         0.199390
 H         3.667976         2.308017        -1.138236
 H         2.456095         0.521479         2.012879
