19
Iteration:  4474charge 0 multiplicity 1
 C         0.022204         0.226903         0.079811
 C         1.475852        -0.043174         0.143445
 C         2.393437        -1.353606         0.249454
 C         3.292764        -0.064399         0.027740
 C         4.623150         0.554208        -0.143134
 C         4.293437         2.034053        -0.070967
 O         2.857570         2.073734         0.531392
 C         2.467058         0.817465         0.906168
 O         2.299832         0.197017        -1.051650
 H        -0.393901        -0.165521         0.963511
 H         0.012340         1.318967         0.143192
 H        -0.416282        -0.198726        -0.777986
 H         2.643389        -1.930434         1.166173
 H         2.300664        -1.927090        -0.709230
 H         5.214087         0.282150         0.766374
 H         5.255768         0.415694        -1.078773
 H         4.925660         2.690392         0.620680
 H         4.184215         2.607683        -1.035289
 H         2.457574         0.563003         1.985653
