19
Iteration:   505
 C        -0.028097         0.070645         0.044085
 C         1.469296        -0.001337         0.100124
 C         2.372127        -1.291931         0.242117
 C         3.266872        -0.090410        -0.055578
 C         4.656204         0.476832        -0.219424
 C         4.256720         2.045799         0.031209
 O         2.998149         2.048818         0.682201
 C         2.526591         0.749169         0.905913
 O         2.232255         0.423743        -1.086889
 H        -0.590295        -0.548529         0.774346
 H        -0.300610         1.166762         0.106436
 H        -0.423189        -0.110363        -0.958199
 H         2.410115        -1.787952         1.261821
 H         2.198757        -1.827746        -0.662148
 H         5.186447         0.127061         0.769038
 H         5.258290         0.403730        -1.139407
 H         5.061974         2.447130         0.710339
 H         4.210660         2.510965        -0.945165
 H         2.586820         0.606006         2.009531
