19
Iteration:  2244charge 0 multiplicity 1
 C         0.065724         0.170178         0.204949
 C         1.489308        -0.063020         0.039489
 C         2.344224        -1.319017         0.321584
 C         3.246187        -0.111121        -0.061165
 C         4.629106         0.485338        -0.291124
 C         4.241680         2.054874         0.112898
 O         2.914757         2.115332         0.546730
 C         2.531902         0.781802         0.918688
 O         2.280688         0.318366        -1.132475
 H        -0.334609         0.192592         1.262879
 H        -0.137922         1.151175        -0.281104
 H        -0.463242        -0.622113        -0.359811
 H         2.222571        -1.825846         1.238774
 H         2.350289        -2.054348        -0.534916
 H         5.451422         0.175958         0.375029
 H         4.824661         0.499814        -1.328254
 H         4.916926         2.421978         0.889046
 H         4.357962         2.628426        -0.889112
 H         2.627187         0.556506         2.082066
