19
Iteration:  2452charge 0 multiplicity 1
 C        -0.036712         0.147263         0.127392
 C         1.466451        -0.017342         0.202247
 C         2.399403        -1.302146         0.341021
 C         3.276164        -0.052063        -0.174945
 C         4.617539         0.532709        -0.300967
 C         4.298977         1.976457         0.140575
 O         2.919822         2.091285         0.605323
 C         2.583112         0.797912         0.919566
 O         2.211261         0.265345        -1.198903
 H        -0.547576         0.336030         1.071781
 H        -0.279306         1.010135        -0.434524
 H        -0.441563        -0.738857        -0.398517
 H         2.652656        -1.669558         1.368969
 H         2.257561        -2.127771        -0.464692
 H         5.215056         0.068170         0.511093
 H         5.180248         0.757676        -1.204222
 H         5.123765         2.322391         0.835273
 H         4.232948         2.706169        -0.820503
 H         2.766227         0.685014         2.000282
