19
Iteration:  4121
 C         0.064783         0.270217        -0.077352
 C         1.497462        -0.063603         0.288773
 C         2.335903        -1.398126         0.247587
 C         3.331246        -0.067866        -0.057820
 C         4.631010         0.577929        -0.242104
 C         4.195312         2.011064        -0.083689
 O         2.857397         2.047945         0.587893
 C         2.627005         0.732399         1.155348
 O         2.241596         0.301905        -1.064637
 H        -0.755939        -0.118119         0.549163
 H        -0.051561         1.305372        -0.240848
 H        -0.036083        -0.193797        -1.041907
 H         2.493013        -1.886788         1.283506
 H         2.048387        -1.999522        -0.569365
 H         5.546240         0.265484         0.531563
 H         5.056609         0.333779        -1.215712
 H         4.669910         2.834270         0.392616
 H         3.931901         2.561879        -1.003259
 H         2.840013         0.602040         2.212332
