19
Iteration:  2884charge 0 multiplicity 1
 C        -0.039927         0.098027         0.029459
 C         1.468321         0.046495         0.035022
 C         2.323307        -1.287949         0.273397
 C         3.315270        -0.061311        -0.017068
 C         4.687932         0.492197        -0.325153
 C         4.257539         1.988271        -0.019769
 O         2.961885         2.151887         0.804947
 C         2.464805         0.766490         0.975146
 O         2.322557         0.276779        -1.101230
 H        -0.256768        -0.262580         1.071854
 H        -0.293839         1.142776        -0.003161
 H        -0.670093        -0.471737        -0.661435
 H         2.616727        -1.617208         1.315995
 H         2.267558        -2.070151        -0.513169
 H         5.486726        -0.033667         0.170089
 H         4.664148         0.354498        -1.385767
 H         4.947127         2.650280         0.358738
 H         3.947567         2.458743        -0.985297
 H         2.538058         0.538444         1.998749
