19
Iteration:   431
 C        -0.113188         0.122606        -0.054554
 C         1.448614        -0.017647         0.150978
 C         2.365322        -1.313241         0.233937
 C         3.307016        -0.127149        -0.107970
 C         4.636319         0.504329        -0.248980
 C         4.193199         1.995475         0.027427
 O         3.029395         2.132053         0.825607
 C         2.607172         0.733346         0.926294
 O         2.286989         0.381367        -1.090989
 H        -0.586290         0.186968         0.907526
 H        -0.208628         1.028558        -0.677532
 H        -0.604557        -0.645746        -0.634068
 H         2.545886        -1.870765         1.194798
 H         2.145261        -1.894856        -0.635692
 H         5.224962         0.310188         0.607512
 H         5.063985         0.364552        -1.257815
 H         4.978668         2.636474         0.599345
 H         3.921844         2.382094        -0.956108
 H         2.649827         0.568478         2.012942
