19
Iteration:   410charge 0 multiplicity 1
 C         0.082718         0.266824        -0.105635
 C         1.505196        -0.001408         0.143617
 C         2.277814        -1.363984         0.238636
 C         3.291732        -0.082581        -0.017484
 C         4.645094         0.590809        -0.337057
 C         4.252714         2.105389        -0.053731
 O         2.931351         1.988241         0.780487
 C         2.572508         0.679233         1.121622
 O         2.230504         0.284482        -1.054496
 H        -0.579483         0.252624         0.730884
 H         0.043665         1.080026        -0.827908
 H        -0.179549        -0.534250        -0.781680
 H         2.298740        -1.881863         1.218280
 H         2.086179        -1.963133        -0.622661
 H         5.348481         0.199036         0.342611
 H         4.876436         0.524061        -1.421154
 H         4.911679         2.712051         0.625883
 H         3.848920         2.650702        -0.878973
 H         2.744297         0.313491         2.163803
