19
Iteration:   824charge 0 multiplicity 1
 C        -0.052365         0.091252        -0.075328
 C         1.414717         0.033994         0.176205
 C         2.306606        -1.214284         0.248697
 C         3.332962        -0.140601        -0.087174
 C         4.708518         0.507563        -0.247827
 C         4.180350         2.020121        -0.072357
 O         3.086868         2.110879         0.844009
 C         2.484007         0.734061         1.074657
 O         2.275119         0.339068        -1.151844
 H        -0.641567        -0.081329         0.842851
 H        -0.177015         1.064027        -0.592108
 H        -0.324797        -0.673985        -0.868583
 H         2.495525        -1.738932         1.244335
 H         2.166038        -2.033297        -0.533136
 H         5.444595         0.183789         0.463761
 H         5.020507         0.065805        -1.263796
 H         4.970282         2.588763         0.394758
 H         3.913975         2.376906        -1.062735
 H         2.369606         0.720360         2.140094
