19
Iteration:  1133
 C         0.019794         0.004626        -0.049876
 C         1.418251         0.071018         0.068206
 C         2.247364        -1.139259         0.372743
 C         3.265534        -0.078870        -0.024395
 C         4.591698         0.462762        -0.316772
 C         4.267311         2.063993        -0.037180
 O         3.077177         2.055578         0.773051
 C         2.636182         0.763080         1.042927
 O         2.244838         0.295736        -1.167970
 H        -0.400338        -0.147956         0.975595
 H        -0.489369         0.959803        -0.334981
 H        -0.291888        -0.774169        -0.753272
 H         2.264380        -1.427864         1.448426
 H         2.120614        -2.015379        -0.323994
 H         5.316111         0.119492         0.372413
 H         4.830082         0.303026        -1.349557
 H         4.961774         2.743316         0.555202
 H         4.164234         2.547447        -1.000117
 H         2.545956         0.356784         2.095913
