19
Iteration:  3964
 C         0.026198         0.302653        -0.065088
 C         1.513400        -0.041686         0.072903
 C         2.374276        -1.348412         0.473167
 C         3.270400        -0.143360        -0.051444
 C         4.650578         0.675877        -0.339289
 C         4.221630         2.081787        -0.004717
 O         2.892140         2.063318         0.778794
 C         2.514116         0.685891         0.931906
 O         2.301336         0.157995        -1.158386
 H        -0.470598        -0.053652         0.799442
 H        -0.089545         1.378366         0.013767
 H        -0.431923        -0.137118        -0.908140
 H         2.481699        -1.435381         1.540093
 H         2.034298        -2.241311        -0.174504
 H         5.426243         0.301152         0.384598
 H         5.150990         0.584577        -1.414036
 H         4.931939         2.454567         0.623093
 H         3.999648         2.777045        -0.903891
 H         2.546011         0.320483         1.937292
