19
Iteration:  1475charge 0 multiplicity 1
 C         0.011823         0.017593         0.059924
 C         1.471222        -0.047248         0.030625
 C         2.425238        -1.284878         0.293438
 C         3.212126        -0.069039        -0.016112
 C         4.590718         0.450350        -0.265468
 C         4.232844         1.952864        -0.013067
 O         3.065433         2.184616         0.766094
 C         2.479086         0.829981         0.957331
 O         2.213555         0.395848        -1.134624
 H        -0.650075        -0.409524         0.862822
 H        -0.341935         1.097850         0.012789
 H        -0.392005        -0.494915        -0.832624
 H         2.366970        -1.832156         1.253464
 H         2.519472        -1.921903        -0.550908
 H         5.403023         0.065755         0.383555
 H         5.112619         0.271858        -1.283965
 H         5.129891         2.494319         0.522108
 H         4.308294         2.619063        -1.009869
 H         2.523267         0.684493         2.016409
