19
Iteration:  1825charge 0 multiplicity 1
 C        -0.024092         0.073033         0.023285
 C         1.471387         0.048906         0.124817
 C         2.355386        -1.265525         0.251343
 C         3.270657        -0.099630        -0.110483
 C         4.645931         0.454753        -0.231477
 C         4.255658         2.072464        -0.067485
 O         3.038709         2.015695         0.678000
 C         2.586181         0.732919         0.985738
 O         2.166042         0.446820        -1.024760
 H        -0.391067        -0.569006         0.793664
 H        -0.591485         0.986299        -0.005761
 H        -0.320969        -0.576394        -0.889172
 H         2.477547        -1.616343         1.338956
 H         2.118114        -2.082345        -0.524198
 H         5.190838         0.225620         0.732217
 H         5.335907         0.325911        -1.022421
 H         4.859222         2.754112         0.461622
 H         4.008210         2.392561        -1.104827
 H         2.826573         0.613146         2.093393
