19
Iteration:  1671charge 0 multiplicity 1
 C        -0.020297        -0.007306         0.086531
 C         1.469364         0.094060         0.125922
 C         2.297019        -1.175032         0.279805
 C         3.275582        -0.113257        -0.100995
 C         4.633173         0.468148        -0.187656
 C         4.246808         2.042832        -0.022293
 O         3.056909         2.056524         0.749116
 C         2.567325         0.781742         0.932844
 O         2.261788         0.336852        -1.217589
 H        -0.166857        -0.386722         1.113393
 H        -0.675097         0.867522         0.033480
 H        -0.359407        -0.701363        -0.677699
 H         2.346000        -1.728072         1.271765
 H         1.766615        -1.639774        -0.503547
 H         5.491241         0.262811         0.525798
 H         5.084483         0.403988        -1.251720
 H         4.894379         2.640837         0.562329
 H         3.841713         2.384366        -0.970627
 H         2.578977         0.562475         2.052836
