19
Iteration:  2375
 C        -0.052641         0.095596        -0.007419
 C         1.468993         0.028081         0.255588
 C         2.405068        -1.327520         0.329352
 C         3.300781        -0.063993        -0.130719
 C         4.601003         0.533042        -0.259884
 C         4.199454         1.953431        -0.153092
 O         2.979233         2.074024         0.694815
 C         2.584772         0.737442         1.056062
 O         2.251629         0.386877        -1.080306
 H        -0.781105        -0.231085         0.736101
 H        -0.249687         1.154505        -0.025433
 H        -0.238289        -0.145409        -1.021409
 H         2.522498        -1.726467         1.308568
 H         2.105442        -2.075348        -0.503326
 H         5.285890         0.275171         0.561739
 H         5.275965         0.347716        -1.054688
 H         4.864856         2.666109         0.422898
 H         4.179768         2.309125        -1.328871
 H         2.772726         0.629851         2.032453
