19
Iteration:  1080
 C         0.011125         0.283557         0.032450
 C         1.445788        -0.134316         0.013355
 C         2.502703        -1.307982         0.197767
 C         3.253544        -0.013172         0.016644
 C         4.599474         0.446973        -0.200661
 C         4.193045         1.880294        -0.208599
 O         2.940469         2.134881         0.736488
 C         2.556009         0.839637         1.123279
 O         2.263170         0.319068        -1.059998
 H        -0.638144        -0.222928         0.760504
 H        -0.029555         1.378784         0.183827
 H        -0.575488         0.087263        -0.880574
 H         2.499025        -1.921115         1.206451
 H         2.556005        -2.058921        -0.675435
 H         5.217263         0.239975         0.694074
 H         5.218747         0.139884        -0.958276
 H         4.816581         2.599788         0.262458
 H         3.909032         2.141061        -1.170040
 H         2.550166         0.467065         2.099349
