19
Iteration:  1949
 C        -0.044976         0.072034         0.185941
 C         1.455539         0.018984         0.100489
 C         2.451956        -1.261094         0.270249
 C         3.279508        -0.050810        -0.032362
 C         4.604003         0.478988        -0.344980
 C         4.374162         1.963783         0.095297
 O         2.850911         2.072190         0.601741
 C         2.465672         0.773622         0.908387
 O         2.324731         0.398772        -1.138958
 H        -0.317914        -0.087488         1.280073
 H        -0.404219         1.097522        -0.121980
 H        -0.597155        -0.616613        -0.410401
 H         2.424453        -1.840504         1.243012
 H         2.278765        -1.814592        -0.633553
 H         5.384499        -0.041340         0.197443
 H         4.919872         0.209921        -1.366788
 H         5.078320         2.272975         0.905246
 H         4.286456         2.752921        -0.712059
 H         2.626847         0.641852         2.045657
