19
Iteration:   155charge 0 multiplicity 1
 C        -0.131260         0.065444        -0.035742
 C         1.452078         0.061275         0.088791
 C         2.427324        -1.295723         0.245582
 C         3.301501        -0.096644        -0.070801
 C         4.641510         0.467659        -0.153815
 C         4.212517         2.015092        -0.090131
 O         3.133264         2.123614         0.779411
 C         2.542184         0.827257         0.973603
 O         2.192912         0.300226        -1.112074
 H        -0.570236        -0.488177         0.790230
 H        -0.506398         1.059118         0.104246
 H        -0.571548        -0.243718        -0.997342
 H         2.676056        -1.702726         1.218008
 H         2.269399        -1.941105        -0.626195
 H         5.072437         0.197093         0.814811
 H         5.334551         0.167901        -0.916429
 H         4.904357         2.706737         0.438864
 H         3.804098         2.374078        -1.035716
 H         2.546116         0.611291         2.076677
