19
Iteration:    17
 C         0.021841         0.184007         0.156262
 C         1.517209        -0.052711         0.039006
 C         2.169643        -1.435194         0.264380
 C         3.224659        -0.166317        -0.141696
 C         4.618803         0.632847        -0.133495
 C         4.229980         2.128823        -0.093506
 O         2.998129         2.082049         0.712001
 C         2.520122         0.733166         1.004453
 O         2.385715         0.338389        -1.227045
 H        -0.130228         0.092569         1.272588
 H        -0.275444         1.219850        -0.137471
 H        -0.541040        -0.629609        -0.391859
 H         2.214673        -1.626595         1.369793
 H         1.973079        -2.297614        -0.408849
 H         5.155164         0.395924         0.898478
 H         5.430714         0.341737        -0.848915
 H         5.119247         2.576426         0.424365
 H         4.122296         2.482378        -1.142525
 H         2.686113         0.474632         2.083150
