19
Iteration:  3578charge 0 multiplicity 1
 C         0.015899         0.214360        -0.005624
 C         1.473546        -0.032350         0.179353
 C         2.398848        -1.281005         0.364270
 C         3.347697        -0.138252         0.001872
 C         4.668401         0.561056        -0.185687
 C         4.230199         1.992491        -0.204076
 O         2.940422         2.020683         0.629695
 C         2.511761         0.716375         0.986898
 O         2.192163         0.359236        -1.054094
 H        -0.712624        -0.067134         0.679683
 H        -0.140737         1.332588        -0.146939
 H        -0.332632        -0.162641        -1.008678
 H         2.390165        -1.758633         1.273252
 H         2.264956        -2.024470        -0.473187
 H         5.500832         0.368433         0.646904
 H         5.252212         0.342812        -1.147198
 H         4.967650         2.605871         0.389595
 H         3.987295         2.456730        -1.161004
 H         2.465530         0.483351         2.131765
