19
Iteration:  1589
 C         0.062267         0.211466         0.036050
 C         1.497010        -0.027360         0.095018
 C         2.209364        -1.297766         0.305355
 C         3.291861        -0.155324        -0.075798
 C         4.561824         0.607671        -0.359691
 C         4.120854         2.037571        -0.019484
 O         2.984486         2.043587         0.757725
 C         2.610036         0.737386         0.972494
 O         2.373747         0.264948        -1.059232
 H        -0.390437        -0.102567         0.969354
 H         0.039056         1.287357        -0.129628
 H        -0.319033        -0.408763        -0.792288
 H         2.250975        -1.672647         1.295287
 H         2.094763        -2.126999        -0.478419
 H         5.392447         0.518476         0.292584
 H         4.966703         0.620646        -1.309568
 H         4.916814         2.609740         0.447956
 H         3.927897         2.597781        -0.909373
 H         2.674701         0.422162         2.028946
