19
Iteration:  2466
 C        -0.004401         0.108166         0.054492
 C         1.469910         0.003026         0.180764
 C         2.440227        -1.263424         0.301650
 C         3.215512        -0.081490        -0.126007
 C         4.669978         0.522946        -0.293184
 C         4.340635         2.057524         0.077217
 O         2.938660         2.098726         0.575711
 C         2.565555         0.753176         0.970554
 O         2.110838         0.306624        -1.076753
 H        -0.513803         0.164119         0.996966
 H        -0.220388         0.976537        -0.611479
 H        -0.363398        -0.813543        -0.513451
 H         2.715322        -1.628670         1.306435
 H         2.171285        -2.002782        -0.350046
 H         5.400495        -0.001339         0.336263
 H         4.993249         0.061843        -1.271283
 H         4.887397         2.391661         1.042225
 H         4.612703         2.840786        -0.793285
 H         2.670143         0.383287         1.919050
