19
Iteration:  1457charge 0 multiplicity 1
 C        -0.120755         0.051593        -0.047042
 C         1.409107         0.028354         0.144379
 C         2.406437        -1.279903         0.283651
 C         3.275497        -0.050980        -0.106167
 C         4.648199         0.573977        -0.253956
 C         4.416969         2.060188         0.022647
 O         3.009496         2.059238         0.723622
 C         2.594120         0.798120         0.955781
 O         2.141823         0.284112        -1.088340
 H        -0.563417        -0.462050         0.820975
 H        -0.629209         0.999356         0.091550
 H        -0.534738        -0.420868        -0.957041
 H         2.699168        -1.583951         1.320880
 H         2.080799        -2.119008        -0.350239
 H         5.293803         0.119579         0.473858
 H         5.106972         0.326032        -1.188734
 H         5.060551         2.660648         0.610381
 H         4.433075         2.465634        -0.980484
 H         2.598165         0.400394         2.036681
