19
Iteration:  1223charge 0 multiplicity 1
 C        -0.047367         0.194425         0.151661
 C         1.422357        -0.010638         0.067397
 C         2.278747        -1.274224         0.314721
 C         3.266902        -0.111125        -0.056363
 C         4.631091         0.555247        -0.231349
 C         4.195959         2.005190        -0.005076
 O         2.914064         2.124622         0.701788
 C         2.564492         0.718355         0.911008
 O         2.474613         0.241025        -1.223747
 H        -0.323751         0.018984         1.224390
 H        -0.231302         1.284994        -0.026642
 H        -0.672502        -0.426973        -0.567839
 H         2.092095        -1.629291         1.392647
 H         2.400710        -2.043329        -0.525456
 H         5.354605         0.184885         0.483909
 H         4.977863         0.298143        -1.175683
 H         4.975965         2.518860         0.638214
 H         4.187578         2.603787        -0.897679
 H         2.798313         0.462483         2.008266
