19
Iteration:  4099charge 0 multiplicity 1
 C         0.048945         0.163130        -0.105863
 C         1.461925        -0.011533         0.139747
 C         2.379037        -1.314912         0.330157
 C         3.328227        -0.113858        -0.005235
 C         4.533001         0.505631        -0.350685
 C         4.148971         2.007440        -0.058478
 O         2.956374         2.117679         0.720576
 C         2.570732         0.763087         0.977386
 O         2.293878         0.324774        -0.975602
 H        -0.519920        -0.262915         0.733518
 H        -0.197764         1.182972        -0.276330
 H        -0.181093        -0.404189        -1.003414
 H         2.568034        -1.682212         1.391269
 H         2.189281        -1.934660        -0.512546
 H         5.495563         0.159653         0.344578
 H         4.980572         0.229256        -1.304237
 H         4.885265         2.596132         0.578694
 H         4.070009         2.654166        -0.972834
 H         2.576359         0.447553         2.019066
