19
Iteration:    66
 C        -0.006724         0.224484         0.074818
 C         1.485892        -0.041016         0.036560
 C         2.515396        -1.396613         0.283968
 C         3.245336        -0.128169        -0.020868
 C         4.550721         0.511585        -0.210262
 C         4.263219         2.018085        -0.081104
 O         2.936238         2.096465         0.712071
 C         2.489074         0.770728         0.910470
 O         2.246986         0.383606        -1.072983
 H        -0.350195         0.284304         1.083217
 H        -0.040919         1.204926        -0.349515
 H        -0.591561        -0.440495        -0.518721
 H         2.638424        -1.871251         1.244195
 H         2.541973        -2.050192        -0.555802
 H         5.059435         0.157775         0.612276
 H         5.090023         0.145247        -1.039427
 H         5.028492         2.502824         0.508912
 H         4.169814         2.425280        -1.078606
 H         2.525909         0.505674         1.978946
