19
Iteration:  4494
 C        -0.058530         0.194064         0.152447
 C         1.500192        -0.071317         0.061639
 C         2.373932        -1.330480         0.378832
 C         3.314561        -0.100268        -0.095694
 C         4.684315         0.549476        -0.092141
 C         4.253884         2.092785         0.087584
 O         2.917333         2.167134         0.504970
 C         2.601553         0.752154         0.883513
 O         2.191756         0.163046        -1.250182
 H        -0.513234        -0.230519         1.049698
 H        -0.206975         1.318076         0.164196
 H        -0.534355        -0.189463        -0.746340
 H         2.462626        -1.591233         1.434902
 H         2.211096        -2.234496        -0.304719
 H         5.060862         0.137613         0.813066
 H         5.334718         0.449141        -0.922061
 H         4.877953         2.752342         0.787517
 H         4.225138         2.724938        -0.832099
 H         2.817081         0.589674         1.982390
