19
Iteration:   117
 C         0.010864         0.048841        -0.155785
 C         1.455080         0.059990         0.103604
 C         2.268856        -1.259973         0.388640
 C         3.263299        -0.083599        -0.022225
 C         4.556469         0.528921        -0.427337
 C         4.144510         2.062703        -0.038005
 O         3.132274         2.084523         0.877850
 C         2.568342         0.802845         1.005197
 O         2.322724         0.274236        -1.064701
 H        -0.396236        -0.502614         0.727213
 H        -0.410190         1.093548        -0.138108
 H        -0.162402        -0.446408        -1.125673
 H         2.327916        -1.566613         1.451689
 H         2.046151        -2.107659        -0.305441
 H         5.458738         0.159830         0.156219
 H         4.696784         0.146585        -1.517170
 H         5.051069         2.410540         0.492678
 H         4.067279         2.617645        -1.018761
 H         2.361148         0.593970         2.062102
