19
Iteration:  1178
 C        -0.074941         0.142029         0.001050
 C         1.450512        -0.088829         0.126913
 C         2.416678        -1.290627         0.258594
 C         3.266187        -0.008545         0.016831
 C         4.596279         0.458585        -0.228347
 C         4.318212         2.005881         0.010171
 O         2.987261         2.088129         0.636982
 C         2.593892         0.830599         0.994603
 O         2.190163         0.319331        -1.123961
 H        -0.571280         0.391230         0.956542
 H        -0.292781         1.078860        -0.569394
 H        -0.695855        -0.645577        -0.489818
 H         2.592717        -1.868822         1.211309
 H         2.351216        -1.948184        -0.688564
 H         5.259306         0.069515         0.549695
 H         5.040900         0.268597        -1.143068
 H         5.122843         2.504687         0.637678
 H         4.263182         2.572263        -0.891274
 H         2.808356         0.521536         2.094306
