19
Iteration:  3801
 C         0.108074         0.229675         0.027970
 C         1.516449        -0.018559         0.141592
 C         2.294281        -1.347406         0.339038
 C         3.288795        -0.113267        -0.023882
 C         4.562130         0.546900        -0.383653
 C         4.254689         2.077875         0.117364
 O         2.820331         2.110900         0.574778
 C         2.534104         0.766056         1.030337
 O         2.365028         0.193858        -1.110121
 H        -0.466061         0.174079         0.964461
 H         0.027834         1.279181        -0.203902
 H        -0.375208        -0.362214        -0.716270
 H         2.299221        -1.814860         1.267106
 H         2.262218        -2.032860        -0.507382
 H         5.438202         0.140691         0.133129
 H         4.658578         0.500584        -1.533601
 H         5.001125         2.259151         0.847918
 H         4.350079         2.804897        -0.760431
 H         2.655520         0.527240         2.122444
