19
Iteration:  1993charge 0 multiplicity 1
 C        -0.133112         0.046112         0.045576
 C         1.414406         0.086015         0.186945
 C         2.380979        -1.251276         0.335201
 C         3.248492        -0.031117        -0.085277
 C         4.640529         0.590490        -0.270357
 C         4.331734         2.039474        -0.055789
 O         3.068337         2.049078         0.806079
 C         2.606396         0.784888         0.901779
 O         2.157089         0.233358        -1.195400
 H        -0.603688        -0.694478         0.774275
 H        -0.585337         1.084058        -0.036502
 H        -0.227790        -0.419859        -0.894508
 H         2.830500        -1.813197         1.247720
 H         2.253258        -1.833558        -0.527676
 H         5.343665         0.301659         0.501097
 H         5.253639         0.286039        -1.107842
 H         5.025975         2.464715         0.645386
 H         4.157592         2.594026        -0.999640
 H         2.591100         0.391409         1.965564
