19
Iteration:   902charge 0 multiplicity 1
 C        -0.025060         0.281028         0.062935
 C         1.395983        -0.031704         0.073645
 C         2.391558        -1.306044         0.232566
 C         3.294503        -0.132517        -0.069829
 C         4.633533         0.581605        -0.133909
 C         4.184850         2.066355        -0.083035
 O         3.007955         2.059107         0.765349
 C         2.612048         0.730831         0.978281
 O         2.265514         0.205331        -1.204713
 H        -0.610807        -0.258570         0.857339
 H        -0.097378         1.381558         0.193466
 H        -0.321675        -0.017017        -0.978226
 H         2.288685        -1.632697         1.361736
 H         2.293804        -2.191046        -0.385769
 H         4.915850         0.263298         0.871089
 H         5.348595         0.250046        -0.970711
 H         4.840229         2.765796         0.414467
 H         3.989481         2.509433        -1.052404
 H         2.653460         0.469802         2.020541
