19
Iteration:  1439charge 0 multiplicity 1
 C        -0.087736         0.063784         0.034100
 C         1.425989        -0.006032         0.196856
 C         2.291156        -1.258928         0.371728
 C         3.276088        -0.080355        -0.173968
 C         4.657836         0.534661        -0.290455
 C         4.261257         2.069082         0.076806
 O         3.031087         2.112875         0.672240
 C         2.639360         0.771856         0.928541
 O         2.210768         0.281974        -1.151398
 H        -0.653967        -0.543181         0.730642
 H        -0.347165         1.103339        -0.066798
 H        -0.060221        -0.317764        -0.984961
 H         2.351659        -1.730612         1.344538
 H         2.262359        -1.981090        -0.530051
 H         5.211448         0.108861         0.666934
 H         5.205878         0.471665        -1.219364
 H         5.077639         2.269584         0.798979
 H         4.143915         2.825036        -0.679447
 H         2.890113         0.402528         1.914244
