19
Iteration:  4149
 C        -0.000997         0.290630         0.098766
 C         1.512315         0.007262         0.010705
 C         2.428002        -1.400732         0.346863
 C         3.360557        -0.171933        -0.011304
 C         4.599053         0.549791        -0.163552
 C         4.122051         2.041890        -0.132225
 O         2.915330         2.082737         0.728094
 C         2.509997         0.744450         0.956016
 O         2.336083         0.275904        -1.188081
 H        -0.379179        -0.119863         1.042523
 H        -0.145124         1.433923         0.099615
 H        -0.601940        -0.129894        -0.770438
 H         2.389952        -1.761197         1.349149
 H         2.343543        -2.097246        -0.534943
 H         5.231063         0.433687         0.592257
 H         5.180864         0.207971        -1.048579
 H         4.846904         2.703294         0.462422
 H         3.768991         2.461212        -1.137424
 H         2.496172         0.440982         2.072664
