19
Iteration:  4703charge 0 multiplicity 1
 C         0.040386         0.092774        -0.143721
 C         1.475642         0.010839         0.077346
 C         2.333397        -1.276956         0.405342
 C         3.270878        -0.064705         0.075469
 C         4.536300         0.550351        -0.244743
 C         4.118746         2.009577        -0.245019
 O         3.130797         2.095419         0.820200
 C         2.501957         0.854059         1.044906
 O         2.333667         0.224052        -1.100403
 H        -0.407730        -0.371069         0.777284
 H        -0.288239         1.189717        -0.251779
 H        -0.210431        -0.470656        -1.103417
 H         2.220247        -1.735491         1.444742
 H         2.461892        -2.058741        -0.304080
 H         5.128492         0.234262         0.588786
 H         4.955949         0.274571        -1.233174
 H         4.763078         2.813794         0.079630
 H         3.739276         2.285775        -1.262181
 H         2.409652         0.667088         2.154535
