19
Iteration:   529
 C         0.039944         0.304612        -0.058171
 C         1.511775        -0.040366         0.056545
 C         2.462319        -1.347854         0.265348
 C         3.290570        -0.082549         0.044746
 C         4.600427         0.499318        -0.335163
 C         4.249482         2.026449         0.036629
 O         2.850282         2.055028         0.762269
 C         2.543556         0.710846         1.047143
 O         2.240178         0.322460        -1.121051
 H        -0.519651        -0.290292         0.696167
 H        -0.241385         1.375200         0.030710
 H        -0.350891         0.015024        -1.045683
 H         2.673165        -1.587579         1.332500
 H         2.208484        -2.150239        -0.484845
 H         5.454852         0.015908         0.208368
 H         4.592984         0.309419        -1.480694
 H         5.090455         2.533574         0.660183
 H         4.040375         2.499321        -0.925928
 H         2.746595         0.444963         2.104287
