19
Iteration:   690
 C         0.027323         0.255642        -0.029360
 C         1.446833        -0.112612        -0.007510
 C         2.379391        -1.360550         0.345716
 C         3.260295        -0.018045        -0.043192
 C         4.614852         0.560231        -0.340714
 C         4.320438         2.026307         0.079688
 O         3.019732         2.141472         0.810220
 C         2.403556         0.768122         0.949357
 O         2.232887         0.213274        -1.115367
 H        -0.545150        -0.419401         0.661697
 H        -0.242006         1.350040         0.128137
 H        -0.174315        -0.093705        -1.066474
 H         2.490453        -1.874417         1.375777
 H         2.388294        -2.170539        -0.431681
 H         5.400154        -0.023415         0.276169
 H         4.716914         0.436737        -1.430774
 H         5.085960         2.443543         0.725223
 H         4.227483         2.706357        -0.771841
 H         2.697211         0.591514         2.005913
