19
Iteration:  4886
 C         0.015198         0.011503        -0.194151
 C         1.405081         0.001391         0.248633
 C         2.298295        -1.211895         0.412424
 C         3.260178        -0.068959         0.060033
 C         4.607775         0.492400        -0.299000
 C         4.221416         2.064495        -0.051560
 O         3.020414         2.119532         0.604937
 C         2.642736         0.862258         1.036147
 O         2.259923         0.248272        -1.032282
 H        -0.606559        -0.320156         0.602985
 H        -0.349307         0.965348        -0.570162
 H        -0.121215        -0.693737        -0.961390
 H         2.433496        -1.897893         1.271095
 H         2.027819        -1.805611        -0.419434
 H         5.594249         0.274158         0.165819
 H         4.665452         0.112808        -1.363955
 H         5.117062         2.340125         0.535473
 H         4.294124         2.749524        -1.029173
 H         2.573852         0.632362         2.099757
