19
Iteration:  3356charge 0 multiplicity 1
 C         0.016176        -0.035729        -0.049390
 C         1.514343         0.106885         0.086787
 C         2.182832        -1.265190         0.284408
 C         3.322723        -0.027227         0.040619
 C         4.706846         0.462238        -0.194886
 C         4.213135         1.904491        -0.208085
 O         2.992516         2.112023         0.774147
 C         2.535700         0.838289         1.011115
 O         2.315488         0.407711        -1.065205
 H        -0.288738        -0.225638         1.028353
 H        -0.619533         0.807902        -0.332348
 H        -0.330600        -0.912222        -0.600183
 H         2.035711        -1.781313         1.249024
 H         2.157623        -1.935401        -0.539404
 H         5.526148         0.192997         0.566257
 H         4.903357         0.421850        -1.275593
 H         4.987005         2.734911         0.114268
 H         3.772875         2.084000        -1.227413
 H         2.556486         0.553404         2.067945
