19
Iteration:   191charge 0 multiplicity 1
 C        -0.015430         0.163730         0.097842
 C         1.505513         0.003841         0.020012
 C         2.244894        -1.337892         0.210330
 C         3.340781        -0.124592        -0.017112
 C         4.719928         0.435537        -0.168289
 C         4.135024         2.077158        -0.015645
 O         2.858890         2.049391         0.596432
 C         2.598641         0.758471         0.998607
 O         2.367391         0.420341        -1.088968
 H        -0.258128        -0.109766         1.171430
 H        -0.117900         1.297925         0.066026
 H        -0.647655        -0.438064        -0.615795
 H         2.217668        -1.866687         1.202277
 H         2.067318        -2.159296        -0.540366
 H         5.308335         0.126214         0.760189
 H         5.280203         0.246663        -1.096286
 H         4.867335         2.783407         0.414004
 H         4.078849         2.433865        -1.039052
 H         2.753548         0.509376         2.077475
