19
Iteration:  2722
 C        -0.070135         0.102747         0.129484
 C         1.418631        -0.003191         0.105431
 C         2.466758        -1.235588         0.305217
 C         3.282362        -0.060187        -0.053349
 C         4.688409         0.540826        -0.242442
 C         4.307883         1.983528         0.107560
 O         2.908067         2.073264         0.574753
 C         2.482355         0.835618         0.937604
 O         2.256074         0.284619        -1.152266
 H        -0.515367        -0.506633         0.957918
 H        -0.303071         1.136115         0.020231
 H        -0.423934        -0.396294        -0.778701
 H         2.424453        -1.792370         1.198118
 H         2.340049        -1.890676        -0.561321
 H         5.294173        -0.211115         0.383622
 H         5.091096         0.429098        -1.271254
 H         5.077565         2.587420         0.699551
 H         4.452739         2.477841        -0.849849
 H         2.539209         0.531382         1.999095
