19
Iteration:   641charge 0 multiplicity 1
 C         0.009477         0.004798         0.004099
 C         1.433667         0.057118         0.140148
 C         2.255658        -1.288887         0.191089
 C         3.270260        -0.082082        -0.064760
 C         4.668882         0.474609        -0.136016
 C         4.351591         2.009303        -0.091257
 O         2.975755         2.075231         0.749980
 C         2.536782         0.746220         1.011623
 O         2.268494         0.462083        -1.117931
 H        -0.388475        -0.192033         0.997984
 H        -0.210629         1.001523        -0.390348
 H        -0.382020        -0.729618        -0.713416
 H         2.267596        -1.922627         1.080717
 H         2.078688        -2.012599        -0.643897
 H         5.210320         0.143678         0.699431
 H         5.141908         0.323676        -1.157466
 H         5.032359         2.743444         0.426156
 H         4.029227         2.320572        -1.119323
 H         2.521523         0.732284         2.086398
