19
Iteration:  1543
 C         0.021538         0.324880         0.006003
 C         1.515789        -0.052798         0.136578
 C         2.513130        -1.366340         0.245863
 C         3.235040        -0.052655        -0.136848
 C         4.557283         0.560037        -0.211285
 C         4.127540         1.971021        -0.119696
 O         3.010849         2.088449         0.821021
 C         2.531838         0.718601         1.031952
 O         2.226304         0.263440        -1.118846
 H        -0.315029         0.252230         1.027842
 H         0.100850         1.301062        -0.459193
 H        -0.380002        -0.542686        -0.562542
 H         2.520886        -1.861370         1.206129
 H         2.439333        -2.038329        -0.575596
 H         4.938701         0.089678         0.652311
 H         5.192770         0.401115        -1.051507
 H         4.826395         2.780309         0.214808
 H         3.835438         2.396315        -1.131421
 H         2.541671         0.408523         2.051978
