19
Iteration:  1530charge 0 multiplicity 1
 C         0.070765         0.190676         0.034913
 C         1.464929        -0.049739         0.145074
 C         2.323746        -1.299710         0.229284
 C         3.258883        -0.092286        -0.096372
 C         4.624181         0.574875        -0.153713
 C         4.186167         2.089739        -0.166980
 O         2.976531         2.010379         0.792142
 C         2.604962         0.693199         1.018818
 O         2.236772         0.315435        -1.138669
 H        -0.533778         0.354249         0.947292
 H        -0.117853         1.194357        -0.429793
 H        -0.530831        -0.441850        -0.630475
 H         2.563040        -1.692087         1.253075
 H         2.159191        -2.002337        -0.522368
 H         5.261210         0.476529         0.751862
 H         5.292059         0.236061        -1.031368
 H         4.986621         2.731853         0.331745
 H         3.789558         2.354385        -1.225932
 H         2.835324         0.341849         2.005247
