19
Iteration:   819
 C        -0.051938         0.060058        -0.083855
 C         1.422554         0.033046         0.168081
 C         2.303386        -1.194759         0.273322
 C         3.283442        -0.136937        -0.105796
 C         4.668017         0.512966        -0.223372
 C         4.189626         2.003750        -0.064317
 O         3.097161         2.088140         0.828616
 C         2.549271         0.758540         1.015183
 O         2.271822         0.338841        -1.146824
 H        -0.599695        -0.035035         0.853802
 H        -0.198849         1.044125        -0.526302
 H        -0.338696        -0.729333        -0.735219
 H         2.462093        -1.652430         1.230159
 H         2.022121        -1.899833        -0.521890
 H         5.381113         0.177818         0.590300
 H         5.224796         0.318861        -1.118461
 H         4.972749         2.580009         0.504380
 H         3.879023         2.468488        -1.035673
 H         2.445804         0.509666         2.137312
