19
Iteration:  1903charge 0 multiplicity 1
 C         0.075596         0.194874         0.097448
 C         1.452282        -0.031385         0.159933
 C         2.378453        -1.252169         0.307283
 C         3.258443        -0.024777        -0.225705
 C         4.625426         0.539699        -0.364265
 C         4.294166         2.071053         0.155481
 O         2.895535         2.077378         0.698315
 C         2.579847         0.705898         0.890234
 O         2.187850         0.179680        -1.101184
 H        -0.449248         0.391019         1.046103
 H        -0.150197         1.107729        -0.490540
 H        -0.522919        -0.512530        -0.590093
 H         2.645339        -1.589234         1.385393
 H         2.262162        -2.160266        -0.420693
 H         5.446762         0.031783         0.192840
 H         5.076187         0.540108        -1.379796
 H         4.862401         2.341412         1.031104
 H         4.432188         2.966620        -0.594982
 H         2.608091         0.378580         2.052460
