19
Iteration:  1690
 C        -0.079298         0.074395         0.106777
 C         1.484930         0.033507         0.046037
 C         2.277519        -1.317454         0.297086
 C         3.292224        -0.074202        -0.108093
 C         4.608561         0.541851        -0.303125
 C         4.219697         2.036229        -0.070755
 O         3.009098         2.082960         0.786722
 C         2.540699         0.739567         0.950619
 O         2.346835         0.371388        -1.110816
 H        -0.383463        -0.125331         1.200573
 H        -0.349402         1.137407        -0.224272
 H        -0.431419        -0.646122        -0.659148
 H         2.233445        -1.562398         1.463273
 H         2.306476        -2.240899        -0.327263
 H         5.400498         0.252011         0.493748
 H         5.164026         0.386039        -1.330452
 H         5.037785         2.406096         0.603039
 H         4.115414         2.423505        -1.073251
 H         2.602884         0.350647         2.048944
