19
Iteration:   160charge 0 multiplicity 1
 C        -0.107708         0.055213        -0.000280
 C         1.454794         0.069424         0.125816
 C         2.408581        -1.278584         0.227630
 C         3.295639        -0.130084        -0.093380
 C         4.620436         0.483038        -0.146481
 C         4.225522         2.029730        -0.081183
 O         3.094956         2.093157         0.748534
 C         2.538052         0.839092         0.987085
 O         2.211603         0.310481        -1.126557
 H        -0.573496        -0.484155         0.861620
 H        -0.437063         1.149252         0.080770
 H        -0.369665        -0.247137        -1.042030
 H         2.608348        -1.813886         1.198781
 H         2.144385        -1.894478        -0.656638
 H         5.055582         0.216655         0.870023
 H         5.554477         0.305014        -0.768393
 H         5.015087         2.648645         0.357690
 H         3.875013         2.320726        -1.095795
 H         2.523146         0.580880         2.045726
