19
Iteration:  2876charge 0 multiplicity 1
 C        -0.003478         0.086141         0.039996
 C         1.444356        -0.000080        -0.002922
 C         2.347639        -1.296505         0.309515
 C         3.287888        -0.055709        -0.045718
 C         4.615558         0.423957        -0.286538
 C         4.175403         2.014695        -0.049448
 O         3.052244         2.145874         0.857828
 C         2.481918         0.863506         0.947159
 O         2.311754         0.292614        -1.138207
 H        -0.266647        -0.160693         1.028459
 H        -0.494576         1.066254         0.023451
 H        -0.542578        -0.616923        -0.673171
 H         2.404000        -1.827979         1.293243
 H         2.287525        -1.994020        -0.489178
 H         5.586842         0.234497         0.327703
 H         4.966592         0.387705        -1.405134
 H         5.022233         2.640262         0.404472
 H         3.935979         2.497651        -0.987888
 H         2.609858         0.380798         2.056795
