19
Iteration:  4582
 C         0.018048        -0.042973        -0.160730
 C         1.478332         0.012747         0.176076
 C         2.392258        -1.162944         0.509159
 C         3.260425        -0.046988        -0.082486
 C         4.534488         0.434892        -0.354107
 C         4.330872         2.020071         0.172959
 O         2.930749         2.150949         0.551597
 C         2.639732         0.872487         0.923087
 O         2.166251         0.286435        -1.047273
 H        -0.546372         0.105236         0.776229
 H        -0.335538         0.712001        -0.981725
 H        -0.277895        -0.997097        -0.651264
 H         2.437902        -1.464414         1.576169
 H         2.246727        -2.141981         0.021710
 H         5.334133        -0.137954         0.012073
 H         4.657716         0.660385        -1.408853
 H         5.081588         1.959906         0.986443
 H         4.688116         2.832508        -0.548379
 H         2.828120         0.485335         1.973696
