19
Iteration:  3187charge 0 multiplicity 1
 C        -0.078944        -0.053804         0.046067
 C         1.436528         0.037310        -0.010189
 C         2.328243        -1.231656         0.337247
 C         3.276177        -0.070365        -0.014418
 C         4.673767         0.469109        -0.242274
 C         4.292090         2.031111         0.034778
 O         3.122003         2.155003         0.729885
 C         2.499792         0.873255         0.953137
 O         2.169483         0.294142        -1.206903
 H        -0.223020        -0.203680         1.172981
 H        -0.528644         0.895255        -0.154367
 H        -0.545379        -0.869951        -0.489167
 H         2.532277        -1.706831         1.291015
 H         2.322872        -1.965777        -0.415302
 H         5.320276         0.022743         0.605855
 H         5.018243         0.250360        -1.250480
 H         5.112016         2.465902         0.545453
 H         4.168707         2.689180        -0.868614
 H         2.549038         0.635298         1.971188
