19
Iteration:   409
 C         0.084578         0.271793        -0.108291
 C         1.519459        -0.002502         0.138744
 C         2.277152        -1.365381         0.244257
 C         3.288959        -0.078863        -0.009839
 C         4.633641         0.601160        -0.351598
 C         4.252773         2.091673        -0.048907
 O         2.928705         1.984622         0.779492
 C         2.575835         0.670611         1.120393
 O         2.232079         0.286962        -1.057940
 H        -0.580256         0.238814         0.732061
 H         0.068764         1.107590        -0.823719
 H        -0.199866        -0.522294        -0.777113
 H         2.295250        -1.896582         1.241205
 H         2.090336        -1.955843        -0.606623
 H         5.344981         0.252279         0.383169
 H         4.844490         0.503191        -1.425463
 H         4.917112         2.735941         0.651461
 H         3.848955         2.624197        -0.881373
 H         2.731534         0.352548         2.188000
