19
Iteration:  3816
 C        -0.075861         0.266033         0.018463
 C         1.417455        -0.038977         0.121585
 C         2.347073        -1.348487         0.419408
 C         3.343628        -0.144856        -0.012331
 C         4.623470         0.655827        -0.357600
 C         4.226592         2.025275         0.074761
 O         2.955570         2.036542         0.679766
 C         2.561097         0.759998         0.850452
 O         2.348194         0.210857        -1.120232
 H        -0.490363         0.092601         1.012865
 H        -0.255678         1.292302        -0.469470
 H        -0.480591        -0.536658        -0.717543
 H         2.386453        -1.688595         1.528757
 H         2.072446        -2.122736        -0.398493
 H         5.600771         0.366544         0.003328
 H         4.833440         0.636952        -1.356797
 H         4.854579         2.607767         0.908341
 H         4.269014         2.754030        -0.740379
 H         2.553128         0.584499         1.933961
