19
Iteration:  1592charge 0 multiplicity 1
 C         0.075421         0.180442         0.027477
 C         1.501295        -0.003795         0.104505
 C         2.194497        -1.310999         0.298857
 C         3.290502        -0.157922        -0.087701
 C         4.543430         0.583137        -0.335176
 C         4.123878         2.045392        -0.037521
 O         2.977183         2.069434         0.761910
 C         2.613417         0.739177         0.968128
 O         2.367427         0.275689        -1.064282
 H        -0.401787        -0.123166         0.988601
 H         0.137499         1.294028        -0.072431
 H        -0.272402        -0.427858        -0.793598
 H         2.322209        -1.700408         1.364366
 H         2.013511        -2.084981        -0.476724
 H         5.531500         0.435907         0.253344
 H         5.072767         0.564308        -1.377704
 H         4.863742         2.603524         0.546368
 H         3.925318         2.655291        -0.894746
 H         2.706158         0.403097         2.074312
