19
Iteration:  3641
 C        -0.038878         0.270812        -0.005491
 C         1.484287        -0.035021         0.043057
 C         2.294727        -1.351732         0.417292
 C         3.334372        -0.157974        -0.040735
 C         4.717274         0.553561        -0.240065
 C         4.115196         2.106278        -0.188672
 O         2.995833         2.066855         0.781591
 C         2.503966         0.718919         1.019705
 O         2.349066         0.276649        -1.136749
 H        -0.234504         0.175429         1.070879
 H        -0.167583         1.361517        -0.255864
 H        -0.654265        -0.392811        -0.660709
 H         2.213434        -1.704916         1.485251
 H         2.416223        -2.241571        -0.318411
 H         5.466864         0.130961         0.540493
 H         5.014955         0.361675        -1.271383
 H         4.725444         2.942715         0.128786
 H         3.771138         2.169287        -1.187643
 H         2.525922         0.492682         2.125593
