19
Iteration:  4968
 C        -0.044064         0.220489         0.105508
 C         1.496388        -0.110293         0.094945
 C         2.297424        -1.322521         0.279299
 C         3.289968        -0.127430        -0.036482
 C         4.707522         0.624786        -0.091930
 C         4.149797         2.107458        -0.098136
 O         2.955890         2.087273         0.618016
 C         2.552987         0.785168         0.911170
 O         2.343219         0.173998        -1.106149
 H        -0.567773         0.265460         1.133394
 H         0.024438         1.289952        -0.264300
 H        -0.552369        -0.365457        -0.755356
 H         2.265219        -1.965840         1.193399
 H         2.215227        -1.904113        -0.667399
 H         5.099542         0.435252         0.894327
 H         5.334335         0.257349        -0.840948
 H         4.999841         2.712166         0.258722
 H         3.963593         2.347461        -1.116286
 H         2.556770         0.660399         2.034158
