19
Iteration:  1119charge 0 multiplicity 1
 C        -0.067748         0.045652        -0.022520
 C         1.489386         0.118192         0.115751
 C         2.157402        -1.243679         0.373436
 C         3.266620        -0.136617        -0.126382
 C         4.676246         0.530993        -0.327990
 C         4.226892         2.015681        -0.068574
 O         3.013675         2.097687         0.807746
 C         2.618847         0.770154         0.968099
 O         2.352216         0.302305        -1.088254
 H        -0.429935        -0.498968         0.875651
 H        -0.525294         1.030386        -0.210153
 H        -0.242087        -0.639630        -0.865621
 H         2.155095        -1.475758         1.412587
 H         1.950521        -2.092130        -0.217696
 H         5.308033         0.139023         0.517032
 H         5.268255         0.410431        -1.353685
 H         5.156611         2.514910         0.366667
 H         3.819957         2.498357        -1.036145
 H         2.799226         0.564927         2.094842
