19
Iteration:  4838
 C        -0.056904         0.177053         0.135484
 C         1.457876        -0.018002         0.076629
 C         2.410826        -1.258294         0.383994
 C         3.297965        -0.070772         0.032729
 C         4.622717         0.538391        -0.195316
 C         4.258862         2.080478         0.037247
 O         2.941624         2.101780         0.596823
 C         2.458699         0.855327         0.840838
 O         2.327534         0.113446        -1.221218
 H        -0.677659        -0.151331         0.988695
 H        -0.256535         1.213661        -0.054424
 H        -0.499706        -0.282268        -0.763227
 H         2.336780        -1.650235         1.395913
 H         2.435258        -2.088813        -0.385267
 H         5.388569         0.178164         0.560777
 H         5.113931         0.289539        -1.137075
 H         5.096917         2.462138         0.704205
 H         4.386933         2.455558        -0.931585
 H         2.489516         0.529427         1.900217
