19
Iteration:  2548charge 0 multiplicity 1
 C        -0.065596         0.141512         0.075802
 C         1.439631        -0.039839         0.089119
 C         2.398618        -1.270612         0.365951
 C         3.248822        -0.077345        -0.128782
 C         4.645061         0.540650        -0.210054
 C         4.274288         2.061294        -0.122262
 O         3.005848         2.098635         0.774152
 C         2.584284         0.772037         0.894142
 O         2.225305         0.249273        -1.106116
 H        -0.736966        -0.359870         0.852324
 H        -0.298611         1.212324         0.092241
 H        -0.397490        -0.200932        -0.932277
 H         2.675364        -1.762277         1.307387
 H         2.426890        -1.935252        -0.592782
 H         4.982539         0.163550         0.775205
 H         5.239663         0.300994        -1.081502
 H         4.943174         2.694238         0.428698
 H         4.090064         2.422220        -1.059111
 H         2.598153         0.417738         1.989253
