19
Iteration:   981
 C        -0.064156         0.070766        -0.067189
 C         1.390273        -0.015205         0.104015
 C         2.413402        -1.253157         0.325135
 C         3.277959        -0.077944        -0.047288
 C         4.638171         0.440642        -0.247572
 C         4.342364         2.016826        -0.012281
 O         3.025684         2.145804         0.755802
 C         2.592649         0.812777         0.990017
 O         2.135952         0.361685        -1.110945
 H        -0.804549         0.142045         0.756371
 H        -0.252939         0.874654        -0.811330
 H        -0.259156        -0.873450        -0.585190
 H         2.477680        -1.644167         1.423517
 H         2.378721        -2.100522        -0.370009
 H         5.297323        -0.262938         0.389447
 H         5.044535         0.353790        -1.248221
 H         5.190981         2.444592         0.502537
 H         4.129577         2.544667        -0.889427
 H         2.642928         0.525720         2.015441
