19
Iteration:  4773
 C        -0.060714         0.152376        -0.034645
 C         1.466551        -0.041977         0.092567
 C         2.514462        -1.347058         0.337644
 C         3.244241        -0.049417         0.000485
 C         4.652111         0.423082        -0.180831
 C         4.236206         1.983204        -0.077936
 O         2.946201         2.198904         0.639800
 C         2.512402         0.854067         0.979406
 O         2.255254         0.265030        -1.063783
 H        -0.537156         0.191664         0.924951
 H        -0.194300         1.027502        -0.591248
 H        -0.444088        -0.631858        -0.659772
 H         2.446329        -1.808026         1.284613
 H         2.403074        -2.111994        -0.483353
 H         5.260829         0.111143         0.756335
 H         5.191375         0.207215        -1.130185
 H         4.991681         2.759712         0.285475
 H         3.904983         2.389656        -1.028234
 H         2.493001         0.804185         2.061076
