19
Iteration:   190
 C        -0.014716         0.157112         0.095044
 C         1.509667         0.003217         0.029847
 C         2.233863        -1.341229         0.209867
 C         3.343303        -0.113752        -0.021629
 C         4.716872         0.435729        -0.162453
 C         4.141423         2.073790        -0.021108
 O         2.859462         2.052539         0.597419
 C         2.599631         0.758710         0.996541
 O         2.364300         0.422131        -1.091815
 H        -0.243767        -0.102759         1.161789
 H        -0.111084         1.273633         0.083133
 H        -0.630449        -0.433963        -0.632714
 H         2.221440        -1.853685         1.200571
 H         2.059769        -2.166190        -0.545382
 H         5.313481         0.127613         0.754554
 H         5.271122         0.221402        -1.055911
 H         4.859625         2.807903         0.431334
 H         4.061607         2.426126        -1.043513
 H         2.779544         0.477035         2.071268
