19
Iteration:  1428
 C         0.051310         0.103936         0.028792
 C         1.501936        -0.015247         0.170176
 C         2.271070        -1.345943         0.302845
 C         3.255694        -0.076312        -0.123497
 C         4.613665         0.522608        -0.336505
 C         4.289252         2.033303         0.098950
 O         2.942972         2.150013         0.696919
 C         2.591656         0.817890         0.951706
 O         2.237785         0.290318        -1.154896
 H        -0.454567        -0.440803         0.832330
 H        -0.363223         1.084327         0.107221
 H        -0.345015        -0.371107        -0.861558
 H         2.404477        -1.626007         1.333463
 H         2.002276        -2.261434        -0.328513
 H         5.356995         0.063338         0.440155
 H         5.129327         0.374664        -1.277391
 H         4.995792         2.502657         0.814936
 H         4.357516         2.570244        -0.823591
 H         2.649611         0.632007         2.010848
