19
Iteration:  1406
 C        -0.035663         0.195786         0.119574
 C         1.449463        -0.006251         0.034344
 C         2.434681        -1.274501         0.275026
 C         3.309082        -0.061989         0.076199
 C         4.588494         0.509192        -0.343643
 C         4.290111         1.994266         0.048907
 O         2.891010         2.035221         0.649481
 C         2.453653         0.773092         0.949733
 O         2.346568         0.319319        -1.127214
 H        -0.454923        -0.105038         1.067640
 H        -0.311325         1.221131         0.047085
 H        -0.623677        -0.337403        -0.621621
 H         2.402254        -1.802879         1.207320
 H         2.637129        -2.015320        -0.573991
 H         5.598262         0.125386         0.123420
 H         4.762086         0.316065        -1.372827
 H         5.138591         2.302003         0.687521
 H         4.302506         2.643637        -0.781449
 H         2.390376         0.477263         1.971996
