19
Iteration:  1769charge 0 multiplicity 1
 C         0.023881         0.202081         0.083371
 C         1.496899         0.027249         0.055226
 C         2.267628        -1.291975         0.284801
 C         3.332134        -0.171576        -0.004841
 C         4.630375         0.613811        -0.298581
 C         4.131059         2.006393        -0.118304
 O         3.002172         2.016121         0.841042
 C         2.525030         0.718454         0.944381
 O         2.328074         0.325970        -1.151416
 H        -0.218044        -0.151494         1.095843
 H        -0.296148         1.259675         0.005544
 H        -0.385813        -0.419848        -0.777908
 H         2.395022        -1.741409         1.376553
 H         2.071572        -2.071116        -0.471674
 H         5.499086         0.503173         0.438035
 H         5.036363         0.501827        -1.342232
 H         4.958927         2.579747         0.330741
 H         3.782312         2.390325        -1.077869
 H         2.513872         0.471376         2.072595
