19
Iteration:  4469charge 0 multiplicity 1
 C         0.014441         0.216635         0.070409
 C         1.521270        -0.040434         0.128906
 C         2.405217        -1.361033         0.268743
 C         3.298219        -0.078343         0.057765
 C         4.650755         0.511236        -0.178812
 C         4.254953         2.029042        -0.071047
 O         2.850398         2.106622         0.538135
 C         2.457556         0.790447         0.933976
 O         2.329183         0.252355        -1.053456
 H        -0.506540        -0.135030         1.042086
 H        -0.081537         1.329692         0.017586
 H        -0.484350        -0.159559        -0.896998
 H         2.684561        -1.994613         1.114728
 H         2.187624        -1.956655        -0.623326
 H         5.188122         0.128391         0.675003
 H         5.148950         0.337942        -1.099528
 H         4.851054         2.736448         0.472184
 H         4.011029         2.524664        -0.990707
 H         2.421331         0.682477         2.047292
