19
Iteration:  4560
 C        -0.076798        -0.076128        -0.116615
 C         1.449144         0.009229         0.245138
 C         2.322608        -1.296231         0.396460
 C         3.267911         0.001442         0.044995
 C         4.659994         0.567772        -0.438627
 C         4.378944         1.955626         0.144078
 O         3.026825         2.192685         0.453792
 C         2.451240         0.855899         1.007295
 O         2.239119         0.304584        -0.989462
 H        -0.849520        -0.089495         0.678196
 H        -0.471750         0.637672        -0.936272
 H        -0.199334        -1.008037        -0.696537
 H         2.451439        -1.722303         1.406945
 H         2.174984        -2.180097        -0.268467
 H         5.485521         0.123758         0.059808
 H         4.700149         0.572225        -1.520404
 H         5.128061         2.059967         1.006568
 H         4.835748         2.630070        -0.651695
 H         2.573958         0.869930         2.135874
