19
Iteration:  1361charge 0 multiplicity 1
 C         0.059237         0.201019         0.052592
 C         1.485823        -0.052365         0.137582
 C         2.319681        -1.266168         0.300715
 C         3.307222        -0.073467        -0.143433
 C         4.641377         0.582541        -0.191189
 C         4.176920         2.048065        -0.001668
 O         2.972795         2.015270         0.700632
 C         2.639187         0.754222         1.007255
 O         2.160534         0.284236        -1.189792
 H        -0.520621         0.278280         0.950148
 H        -0.002317         1.057071        -0.580944
 H        -0.248449        -0.667643        -0.542680
 H         2.349180        -1.757314         1.289794
 H         2.008704        -1.960641        -0.546715
 H         5.247662         0.072220         0.672599
 H         5.236258         0.280315        -1.034743
 H         4.849414         2.653143         0.651161
 H         4.092503         2.612983        -0.893490
 H         2.819928         0.364387         1.950914
