19
Iteration:  4044
 C         0.009723        -0.050184         0.061443
 C         1.448020         0.089823         0.084815
 C         2.329965        -1.222031         0.281160
 C         3.220034        -0.098924        -0.191739
 C         4.619156         0.492285        -0.148999
 C         4.334103         1.990059        -0.062566
 O         3.076204         2.168827         0.845952
 C         2.519042         0.874474         0.953935
 O         2.202007         0.251005        -1.235867
 H        -0.371928        -0.131188         1.076138
 H        -0.418456         0.792649        -0.446672
 H        -0.265778        -0.948941        -0.508058
 H         2.407884        -1.761807         1.254199
 H         2.157244        -1.975122        -0.466450
 H         4.954200         0.133999         0.946220
 H         5.419710         0.473288        -0.893594
 H         4.948052         2.688935         0.496954
 H         4.037487         2.570549        -0.941005
 H         2.444415         0.590649         2.013213
