19
Iteration:  4431
 C         0.031593         0.096461        -0.134224
 C         1.484734         0.037589         0.077784
 C         2.299144        -1.281144         0.448301
 C         3.309947        -0.111811         0.008421
 C         4.604253         0.594444        -0.288335
 C         4.101645         2.054034        -0.224242
 O         3.067361         2.043980         0.809134
 C         2.515680         0.759595         1.075530
 O         2.357925         0.308238        -1.068815
 H        -0.569923        -0.096209         0.711225
 H        -0.229022         1.087408        -0.546274
 H        -0.205328        -0.684409        -0.831913
 H         2.315627        -1.667639         1.494123
 H         1.924846        -1.893654        -0.396657
 H         5.306782         0.323261         0.580373
 H         5.042057         0.033009        -1.230029
 H         4.916787         2.792622        -0.031561
 H         3.694222         2.190176        -1.243525
 H         2.367585         0.543918         2.134457
