19
Iteration:  1443charge 0 multiplicity 1
 C        -0.138035         0.054205         0.025699
 C         1.430026         0.007833         0.187184
 C         2.324317        -1.215533         0.377453
 C         3.255020        -0.084664        -0.174437
 C         4.664749         0.544661        -0.252376
 C         4.315551         2.076925         0.038911
 O         3.029581         2.090170         0.683475
 C         2.635486         0.724313         0.911295
 O         2.199328         0.275289        -1.129398
 H        -0.700471        -0.620490         0.711028
 H        -0.342000         1.149446        -0.123893
 H        -0.122775        -0.328123        -1.010844
 H         2.392360        -1.784975         1.321680
 H         2.253156        -1.807615        -0.476830
 H         5.159054         0.173915         0.591955
 H         5.190781         0.509249        -1.251159
 H         5.087286         2.286835         0.879611
 H         4.127233         2.904804        -0.762616
 H         2.966503         0.428922         1.924268
