19
Iteration:  3494
 C        -0.111501         0.026345         0.068403
 C         1.413755        -0.099493         0.116801
 C         2.375233        -1.279721         0.357481
 C         3.227795        -0.052447        -0.103363
 C         4.694198         0.442245        -0.256820
 C         4.395469         2.034496         0.081505
 O         3.028327         2.211087         0.677480
 C         2.484447         0.909401         0.895112
 O         2.179029         0.273751        -1.177925
 H        -0.620011         0.039358         1.023140
 H        -0.165670         1.005523        -0.455869
 H        -0.521604        -0.750924        -0.594487
 H         2.638402        -1.615569         1.417633
 H         2.405012        -2.176387        -0.329484
 H         5.254716         0.077161         0.515642
 H         5.193482         0.278821        -1.234700
 H         5.161808         2.421696         0.751706
 H         4.460800         2.689308        -0.836793
 H         2.638294         0.560338         1.870994
