19
Iteration:    71
 C         0.024505         0.213104         0.025349
 C         1.469666        -0.091028         0.077430
 C         2.472463        -1.343628         0.294644
 C         3.226685        -0.124941        -0.032116
 C         4.570040         0.494303        -0.245128
 C         4.229455         2.031195        -0.079696
 O         2.975293         2.092123         0.703484
 C         2.475870         0.761315         0.919062
 O         2.250957         0.382886        -1.026372
 H        -0.424528         0.212550         1.077260
 H        -0.084576         1.259633        -0.420792
 H        -0.603271        -0.479624        -0.647736
 H         2.577791        -1.885913         1.277411
 H         2.516703        -2.078542        -0.574033
 H         5.182175         0.183843         0.761977
 H         5.120103         0.261139        -1.240239
 H         5.077793         2.497310         0.493073
 H         4.208598         2.676202        -1.016238
 H         2.702173         0.521397         1.976813
