19
Iteration:  3850
 C         0.054776         0.074679        -0.016310
 C         1.433224        -0.048246         0.118857
 C         2.409299        -1.253183         0.327880
 C         3.206075        -0.019924        -0.102190
 C         4.552402         0.505851        -0.216244
 C         4.254463         1.995549        -0.028268
 O         3.051784         2.149677         0.852173
 C         2.555958         0.871158         0.897504
 O         2.212275         0.226986        -1.201661
 H        -0.516773         0.116465         0.953992
 H        -0.214984         1.063394        -0.475017
 H        -0.346627        -0.812926        -0.614363
 H         2.526370        -1.739235         1.423441
 H         2.265152        -2.040472        -0.412753
 H         5.082612         0.215897         0.682728
 H         4.967385         0.398955        -1.191862
 H         5.174917         2.425043         0.583752
 H         4.140448         2.345480        -1.032954
 H         2.623956         0.545312         1.934392
