19
Iteration:  4042charge 0 multiplicity 1
 C        -0.002086        -0.049401         0.064868
 C         1.470306         0.081634         0.090066
 C         2.334675        -1.216572         0.294042
 C         3.214565        -0.100871        -0.183277
 C         4.616738         0.498590        -0.132343
 C         4.346786         1.993593        -0.057380
 O         3.058022         2.162582         0.837507
 C         2.530851         0.862231         0.940759
 O         2.196389         0.273177        -1.232143
 H        -0.400898        -0.105284         1.004347
 H        -0.421727         0.800719        -0.450334
 H        -0.250495        -0.943165        -0.492677
 H         2.450683        -1.767868         1.191074
 H         2.155513        -1.991133        -0.501289
 H         4.943688         0.169448         0.928805
 H         5.392486         0.390809        -0.963717
 H         4.920744         2.622687         0.495631
 H         4.032591         2.486619        -1.012755
 H         2.489168         0.592446         1.945810
