19
Iteration:  4899
 C        -0.099856        -0.024928        -0.164233
 C         1.472867         0.092335         0.132176
 C         2.269819        -1.296859         0.365847
 C         3.288933        -0.121079         0.104863
 C         4.588267         0.516544        -0.359169
 C         4.322724         2.019860        -0.112157
 O         2.996935         2.170312         0.679262
 C         2.589681         0.882421         1.060623
 O         2.332462         0.242644        -0.982435
 H        -0.651472        -0.238024         0.785154
 H        -0.484974         0.924067        -0.573461
 H        -0.218902        -0.879658        -0.897189
 H         2.176870        -1.790272         1.356289
 H         2.268411        -1.908023        -0.564164
 H         5.326988         0.131090         0.321309
 H         4.905700         0.463728        -1.405656
 H         4.971985         2.610952         0.506993
 H         4.044708         2.510752        -1.153329
 H         2.728275         0.803465         2.183477
