19
Iteration:   510charge 0 multiplicity 1
 C         0.006447         0.107010         0.016185
 C         1.465137         0.016116         0.083689
 C         2.390302        -1.337687         0.261323
 C         3.292846        -0.119949        -0.055805
 C         4.651449         0.489072        -0.219267
 C         4.245872         1.979862         0.022681
 O         2.984423         2.073302         0.682377
 C         2.521866         0.757558         0.962600
 O         2.178902         0.437224        -1.097042
 H        -0.555822        -0.438134         0.766805
 H        -0.161693         1.163153         0.217483
 H        -0.288983        -0.112680        -1.026930
 H         2.346147        -1.770284         1.247184
 H         2.461912        -2.054745        -0.631192
 H         5.341392         0.206811         0.538080
 H         5.247182         0.528408        -1.158482
 H         4.968131         2.461195         0.730173
 H         4.206360         2.587909        -0.921641
 H         2.453194         0.608638         2.049879
