19
Iteration:  1246
 C         0.000287         0.231214         0.042990
 C         1.452634         0.003727         0.026861
 C         2.448636        -1.373767         0.289461
 C         3.264427        -0.100133         0.032537
 C         4.684218         0.519424        -0.237640
 C         4.231034         2.058745        -0.008490
 O         3.003394         2.085468         0.727404
 C         2.460936         0.803528         0.925951
 O         2.206064         0.219439        -1.145933
 H        -0.237042        -0.236648         1.035771
 H        -0.104345         1.336464         0.188515
 H        -0.588269        -0.167751        -0.840962
 H         2.726383        -1.908377         1.309464
 H         2.284647        -1.941733        -0.684350
 H         5.289072         0.052651         0.548799
 H         5.112620         0.147961        -1.171639
 H         4.874566         2.843570         0.446385
 H         4.061468         2.489790        -1.018668
 H         2.244724         0.840163         2.056227
