19
Iteration:  1210
 C         0.009356         0.181471         0.104753
 C         1.502079         0.004055         0.103550
 C         2.191546        -1.305830         0.347023
 C         3.314027        -0.108065        -0.144248
 C         4.675801         0.437315        -0.269936
 C         4.208819         2.111183         0.044332
 O         2.876134         2.035151         0.650149
 C         2.580458         0.791349         0.941997
 O         2.425759         0.314209        -1.178507
 H        -0.242585         0.075237         1.204659
 H        -0.412541         1.180686        -0.220041
 H        -0.553835        -0.630726        -0.420934
 H         2.429346        -1.652911         1.349291
 H         1.753845        -2.145300        -0.280613
 H         5.227041         0.129221         0.607245
 H         5.176493         0.455461        -1.181595
 H         4.931732         2.717043         0.752769
 H         4.044625         2.574778        -0.913580
 H         2.558416         0.419473         2.050786
