19
Iteration:   284charge 0 multiplicity 1
 C        -0.030634         0.001983        -0.058720
 C         1.464360        -0.001556         0.018569
 C         2.328659        -1.304137         0.229518
 C         3.237671        -0.085866         0.047351
 C         4.600203         0.530694        -0.333147
 C         4.279951         1.906917        -0.046443
 O         3.044088         2.180749         0.831850
 C         2.507766         0.863226         1.008031
 O         2.299278         0.384668        -1.062899
 H        -0.459786        -0.251519         0.937469
 H        -0.262669         1.001439        -0.353023
 H        -0.348201        -0.821882        -0.719183
 H         2.264762        -1.774533         1.228911
 H         2.087631        -2.099114        -0.508265
 H         5.389795         0.197785         0.395501
 H         4.903206         0.316127        -1.392696
 H         5.088177         2.344415         0.543767
 H         4.111369         2.700274        -0.802504
 H         2.601376         0.466222         2.024424
