19
Iteration:  1646
 C        -0.073005         0.020187         0.091488
 C         1.402426        -0.093148         0.079958
 C         2.391382        -1.338688         0.238629
 C         3.189063        -0.058383        -0.059365
 C         4.605416         0.464970        -0.231912
 C         4.396663         2.049532        -0.094098
 O         3.075075         2.166872         0.764099
 C         2.530409         0.808230         0.939661
 O         2.217707         0.429484        -1.126122
 H        -0.492312        -0.497412         1.013580
 H        -0.549372         1.054078         0.042981
 H        -0.387074        -0.473030        -0.854797
 H         2.485262        -1.731107         1.325273
 H         2.386733        -2.062027        -0.605189
 H         5.164155         0.175644         0.756236
 H         5.320816         0.126445        -1.080818
 H         5.083753         2.618462         0.528404
 H         3.957383         2.426255        -0.965965
 H         2.561277         0.648591         2.091584
