19
Iteration:  1390
 C        -0.114817         0.231116         0.112908
 C         1.463070        -0.061616         0.046984
 C         2.434846        -1.368881         0.218971
 C         3.351216        -0.199107        -0.038809
 C         4.637569         0.524043        -0.291762
 C         4.181338         1.985168         0.044227
 O         2.922855         2.117162         0.635317
 C         2.521616         0.813828         1.027335
 O         2.353853         0.327097        -1.111154
 H        -0.333679         0.224918         1.213542
 H        -0.185339         1.318424        -0.214768
 H        -0.602778        -0.487804        -0.570188
 H         2.529397        -1.766414         1.302082
 H         2.164686        -1.998146        -0.617878
 H         5.417110         0.131207         0.314286
 H         4.873138         0.453737        -1.415359
 H         4.840145         2.507042         0.743147
 H         4.258474         2.786314        -0.776440
 H         2.437559         0.674746         2.226616
