19
Iteration:    43
 C        -0.045323         0.265528         0.231042
 C         1.486718         0.044592         0.028574
 C         2.392151        -1.227796         0.191417
 C         3.318715        -0.133463        -0.065663
 C         4.764685         0.507383        -0.063567
 C         4.118636         2.010078        -0.016053
 O         2.922480         2.044985         0.697196
 C         2.466082         0.762810         0.895710
 O         2.292077         0.219694        -1.241579
 H        -0.168345         0.239902         1.285809
 H        -0.449716         1.187559        -0.149998
 H        -0.504303        -0.573638        -0.194021
 H         2.485165        -1.749042         1.117314
 H         2.349063        -1.850677        -0.706597
 H         5.331366         0.189698         0.708268
 H         5.423460         0.354045        -0.955372
 H         4.877660         2.661738         0.400262
 H         4.048327         2.147201        -1.130991
 H         2.672883         0.458393         1.945999
