19
Iteration:  1165
 C        -0.149977         0.115671        -0.014346
 C         1.374820        -0.082061         0.124095
 C         2.504778        -1.312816         0.230254
 C         3.200708        -0.060125        -0.086711
 C         4.639276         0.411952        -0.271710
 C         4.355743         2.048681        -0.026977
 O         3.078478         2.220729         0.716420
 C         2.452927         0.819073         1.029749
 O         2.253723         0.283927        -1.039142
 H        -0.553399         0.247781         1.024491
 H        -0.164512         1.061942        -0.640115
 H        -0.594933        -0.716505        -0.559494
 H         2.679106        -1.804775         1.164012
 H         2.382259        -2.007437        -0.617203
 H         5.232880        -0.086168         0.502612
 H         4.841737         0.186230        -1.356434
 H         5.173680         2.511225         0.675670
 H         4.281505         2.571622        -1.020610
 H         2.390152         0.732844         2.216316
