19
Iteration:   714
 C        -0.077597         0.274053        -0.055693
 C         1.503445         0.001649         0.169791
 C         2.407477        -1.320055         0.303773
 C         3.266882        -0.135093        -0.098146
 C         4.616568         0.571686        -0.314524
 C         4.346884         2.069062         0.132152
 O         2.882183         2.031414         0.698441
 C         2.579133         0.783476         1.025525
 O         2.261748         0.199466        -1.163376
 H        -0.807573        -0.222760         0.627231
 H        -0.264061         1.386000        -0.001878
 H        -0.288222        -0.036563        -1.138078
 H         2.668561        -1.771193         1.267045
 H         2.129309        -2.117431        -0.461837
 H         5.338647         0.011165         0.298795
 H         4.774804         0.356963        -1.439667
 H         4.979555         2.530614         0.876127
 H         4.195846         2.799584        -0.637683
 H         2.778093         0.478840         2.129270
