19
Iteration:   222
 C         0.045718         0.282791         0.035857
 C         1.460300        -0.058165         0.055130
 C         2.437815        -1.379302         0.283596
 C         3.219962        -0.060388         0.010764
 C         4.629028         0.519733        -0.307327
 C         4.213245         2.094607         0.058880
 O         2.894971         2.074236         0.754007
 C         2.503091         0.777968         0.967805
 O         2.342617         0.210680        -1.178640
 H        -0.388012         0.298815         1.044966
 H         0.102713         1.289732        -0.432647
 H        -0.759811        -0.219949        -0.526220
 H         2.526504        -1.914255         1.238384
 H         2.186299        -2.025291        -0.606615
 H         5.363631         0.057628         0.394753
 H         4.720480         0.335711        -1.337586
 H         5.069546         2.534093         0.675942
 H         4.072013         2.544783        -0.918606
 H         2.717311         0.460962         2.040428
