19
Iteration:   269charge 0 multiplicity 1
 C        -0.086930         0.088741        -0.110513
 C         1.419476         0.016687         0.133718
 C         2.341793        -1.218326         0.352111
 C         3.280139        -0.084050        -0.094799
 C         4.613729         0.478093        -0.347328
 C         4.263156         2.125410         0.068291
 O         3.050726         2.070130         0.823517
 C         2.592583         0.755007         1.005335
 O         2.278459         0.278282        -1.131132
 H        -0.657703        -0.130288         0.818688
 H        -0.355276         1.039279        -0.664804
 H        -0.430645        -0.776798        -0.736262
 H         2.462757        -1.791704         1.325144
 H         2.346248        -1.958986        -0.423248
 H         5.397067         0.065539         0.257933
 H         4.719492         0.507483        -1.457821
 H         5.040743         2.628009         0.615786
 H         4.142807         2.509351        -0.927081
 H         2.506645         0.449336         2.073465
