19
Iteration:  4482
 C         0.040153         0.239754         0.112079
 C         1.436005        -0.078872         0.125015
 C         2.406889        -1.317125         0.276350
 C         3.259042        -0.110905        -0.061050
 C         4.649584         0.622341        -0.087410
 C         4.270979         2.081884        -0.030844
 O         2.889939         2.089219         0.519553
 C         2.530766         0.801818         0.921115
 O         2.243325         0.152698        -1.123917
 H        -0.442884        -0.261037         0.996774
 H        -0.176478         1.354964         0.162841
 H        -0.480523        -0.212028        -0.759809
 H         2.315312        -1.822737         1.213886
 H         2.491436        -2.020531        -0.639782
 H         5.260186         0.434972         0.741332
 H         5.192048         0.298536        -0.882728
 H         4.985996         2.411596         0.776769
 H         4.462946         2.511465        -1.015136
 H         2.654568         0.614932         2.037622
