19
Iteration:  2727
 C        -0.032702         0.136927         0.136935
 C         1.415946        -0.010642         0.107248
 C         2.482954        -1.257046         0.328915
 C         3.219809        -0.010985        -0.074734
 C         4.688826         0.521796        -0.204131
 C         4.350251         1.994232         0.124948
 O         2.897273         2.094607         0.587129
 C         2.499462         0.788996         0.883975
 O         2.223601         0.249474        -1.172389
 H        -0.577599        -0.409729         0.888727
 H        -0.320207         1.227718         0.077642
 H        -0.372231        -0.332555        -0.849637
 H         2.545496        -1.932187         1.256557
 H         2.425590        -1.951134        -0.527001
 H         5.381666        -0.078124         0.337584
 H         5.090382         0.476095        -1.228227
 H         5.040397         2.646312         0.751346
 H         4.191949         2.473728        -0.879092
 H         2.682910         0.469375         1.929822
