19
Iteration:   584charge 0 multiplicity 1
 C         0.040351         0.236658        -0.015695
 C         1.462968        -0.030343         0.068904
 C         2.314532        -1.261118         0.274757
 C         3.302833        -0.097701        -0.080171
 C         4.623131         0.539329        -0.251508
 C         4.076632         2.020346        -0.016661
 O         3.003667         2.016276         0.857382
 C         2.577455         0.704330         0.952169
 O         2.321283         0.306281        -1.154107
 H        -0.335920         0.266611         1.016948
 H        -0.182312         1.218954        -0.424559
 H        -0.444410        -0.590081        -0.554330
 H         2.267021        -1.620075         1.280551
 H         2.340537        -2.006113        -0.574417
 H         5.296411         0.244073         0.543188
 H         5.202469         0.322173        -1.207998
 H         4.877779         2.648862         0.459979
 H         3.798409         2.521577        -0.949013
 H         2.729716         0.542172         2.012522
