19
Iteration:  2718charge 0 multiplicity 1
 C        -0.094707         0.059036         0.109187
 C         1.452583         0.000205         0.105797
 C         2.424429        -1.230492         0.271180
 C         3.332129        -0.088438        -0.040368
 C         4.673389         0.526081        -0.268491
 C         4.287262         1.988512         0.088460
 O         2.928000         2.077553         0.567811
 C         2.476396         0.853008         0.966822
 O         2.280026         0.314643        -1.128106
 H        -0.446178        -0.473211         1.029975
 H        -0.377041         1.135137         0.046912
 H        -0.496756        -0.452816        -0.739693
 H         2.406077        -1.677834         1.312040
 H         2.258923        -1.938932        -0.635688
 H         5.237416        -0.110484         0.453017
 H         5.038415         0.407840        -1.271278
 H         4.977628         2.411306         0.736035
 H         4.541221         2.559264        -0.875800
 H         2.435920         0.625243         2.146851
