19
Iteration:  3720
 C        -0.017288        -0.053952         0.118214
 C         1.486458         0.090996         0.048556
 C         2.299680        -1.212908         0.329222
 C         3.233787        -0.044848        -0.094568
 C         4.555693         0.471658        -0.227102
 C         4.418477         2.006071         0.083518
 O         3.020102         2.156148         0.727509
 C         2.466168         0.937753         0.904886
 O         2.260150         0.224919        -1.231823
 H        -0.166165        -0.484854         1.083271
 H        -0.635735         0.826388        -0.172126
 H        -0.198476        -0.869772        -0.625410
 H         2.496984        -1.555084         1.366052
 H         2.026884        -2.083382        -0.321463
 H         5.388619        -0.140012         0.306878
 H         4.827591         0.306330        -1.343793
 H         5.247039         2.385224         0.642438
 H         4.269990         2.529259        -0.810208
 H         2.465376         0.713060         2.020569
