19
Iteration:  3391charge 0 multiplicity 1
 C        -0.058025         0.156347        -0.051567
 C         1.436844        -0.063704         0.123144
 C         2.414919        -1.303620         0.386278
 C         3.202628        -0.053899        -0.118720
 C         4.656825         0.602982        -0.164162
 C         4.258200         1.979473        -0.078328
 O         3.059317         2.101756         0.764236
 C         2.532002         0.830469         0.914574
 O         2.209991         0.216383        -1.122373
 H        -0.564074        -0.185658         0.920641
 H        -0.146835         1.216332        -0.200338
 H        -0.409915        -0.396896        -0.922095
 H         2.492647        -1.681843         1.459386
 H         2.348794        -2.011126        -0.418833
 H         5.390572         0.177715         0.564291
 H         5.162867         0.451840        -1.079575
 H         5.032465         2.728174         0.448214
 H         3.991933         2.332019        -1.075082
 H         2.592394         0.552223         1.934630
