19
Iteration:  1229charge 0 multiplicity 1
 C        -0.034074         0.213192         0.163506
 C         1.427119        -0.017825         0.042021
 C         2.348468        -1.283019         0.274923
 C         3.313560        -0.131873        -0.018677
 C         4.619217         0.574141        -0.190955
 C         4.215512         1.988306        -0.027803
 O         2.945174         2.123796         0.711515
 C         2.495915         0.762327         0.915483
 O         2.412522         0.207576        -1.209112
 H        -0.515153         0.058723         1.132305
 H        -0.384465         1.244960         0.075389
 H        -0.621351        -0.241967        -0.601661
 H         2.164770        -1.674595         1.237876
 H         2.434508        -2.011937        -0.483556
 H         5.406458         0.273917         0.536491
 H         4.860232         0.422574        -1.321548
 H         5.070992         2.407535         0.543458
 H         4.205392         2.621391        -0.952086
 H         2.553720         0.382110         1.923292
