19
Iteration:  1699charge 0 multiplicity 1
 C        -0.051812         0.134823         0.021914
 C         1.459726        -0.097630         0.021570
 C         2.375287        -1.291790         0.283535
 C         3.292853        -0.071017        -0.074371
 C         4.624200         0.545818        -0.310609
 C         4.211087         1.956516        -0.068113
 O         3.000984         2.130146         0.780364
 C         2.575026         0.742932         1.009001
 O         2.289416         0.342032        -1.065259
 H        -0.349353         0.074482         1.116204
 H        -0.335783         1.212414        -0.179774
 H        -0.803151        -0.491286        -0.503193
 H         2.276867        -1.693188         1.330927
 H         2.141336        -2.067724        -0.505528
 H         5.378921         0.271182         0.445923
 H         4.993680         0.495083        -1.352211
 H         5.048890         2.528479         0.527968
 H         3.998591         2.602659        -0.963707
 H         2.693984         0.527158         2.080805
