19
Iteration:  1587charge 0 multiplicity 1
 C         0.053605         0.233408         0.039747
 C         1.496020        -0.040107         0.091799
 C         2.227775        -1.296639         0.305180
 C         3.296446        -0.152338        -0.062428
 C         4.578222         0.625425        -0.371006
 C         4.123194         2.035328        -0.011909
 O         2.984536         2.026185         0.758582
 C         2.603909         0.729938         0.979072
 O         2.372173         0.259990        -1.063761
 H        -0.395456        -0.081560         0.967494
 H        -0.081578         1.290386        -0.178147
 H        -0.374017        -0.376434        -0.796146
 H         2.200581        -1.679978         1.294329
 H         2.154349        -2.103566        -0.440271
 H         5.322197         0.515023         0.361979
 H         4.903941         0.636243        -1.355413
 H         4.981142         2.616305         0.410238
 H         3.909294         2.583722        -0.981655
 H         2.648334         0.445296         1.993955
