19
Iteration:   962charge 0 multiplicity 1
 C        -0.012947        -0.022477        -0.061966
 C         1.435171         0.048203         0.179213
 C         2.260262        -1.297798         0.294037
 C         3.176878        -0.104079        -0.097026
 C         4.659364         0.570896        -0.241974
 C         4.323120         2.000531        -0.029443
 O         3.042953         2.085859         0.660603
 C         2.561767         0.802334         0.974362
 O         2.284413         0.393377        -1.030851
 H        -0.490197        -0.047622         0.892417
 H        -0.389686         0.859617        -0.563508
 H        -0.404044        -0.874245        -0.586959
 H         2.398330        -1.736316         1.172458
 H         1.684455        -1.801172        -0.504594
 H         5.310294         0.165013         0.568957
 H         5.204830         0.189658        -1.068081
 H         5.006099         2.392193         0.743775
 H         4.392137         2.574910        -0.985532
 H         2.731055         0.696222         2.083261
