19
Iteration:  2804
 C         0.074210         0.160304        -0.034074
 C         1.464068        -0.009406         0.110613
 C         2.372885        -1.339934         0.271536
 C         3.269886        -0.025515         0.037524
 C         4.569115         0.552771        -0.323123
 C         4.172425         1.997752        -0.155351
 O         2.966493         2.029184         0.739456
 C         2.517567         0.764112         1.013959
 O         2.359688         0.370641        -1.014215
 H        -0.266912         0.142135         1.046755
 H        -0.387958         1.146017        -0.318208
 H        -0.392029        -0.672247        -0.562656
 H         2.351020        -2.040288         1.178608
 H         2.383192        -1.992266        -0.679816
 H         5.259945         0.101211         0.337947
 H         4.858666         0.088383        -1.257287
 H         4.862987         2.418883         0.655123
 H         3.896388         2.652660        -1.052737
 H         2.461360         0.613189         2.034091
