19
Iteration:  1212
 C        -0.017061         0.187116         0.111994
 C         1.493321        -0.005154         0.099589
 C         2.192327        -1.292214         0.345343
 C         3.293111        -0.096350        -0.130952
 C         4.662513         0.448927        -0.276403
 C         4.209416         2.105203         0.042277
 O         2.877868         2.047453         0.660485
 C         2.593248         0.780368         0.936388
 O         2.453015         0.302829        -1.190995
 H        -0.183279         0.001242         1.203449
 H        -0.311579         1.221746        -0.213585
 H        -0.590145        -0.641040        -0.414283
 H         2.407594        -1.686412         1.407975
 H         1.823153        -2.169726        -0.332060
 H         5.246002         0.130103         0.581007
 H         5.185616         0.396271        -1.160312
 H         4.875038         2.678346         0.752407
 H         4.028100         2.536870        -0.904936
 H         2.629800         0.445301         2.053355
