19
Iteration:  4435charge 0 multiplicity 1
 C         0.061531         0.110955        -0.115513
 C         1.499635         0.039523         0.057127
 C         2.306065        -1.249234         0.429437
 C         3.296210        -0.101928         0.046138
 C         4.604873         0.587333        -0.297585
 C         4.115238         2.016712        -0.235770
 O         3.012380         2.028459         0.789961
 C         2.521206         0.744313         1.054084
 O         2.378610         0.331003        -1.043826
 H        -0.615536        -0.085526         0.783755
 H        -0.322359         1.067129        -0.502924
 H        -0.318824        -0.654205        -0.893019
 H         2.360818        -1.648575         1.460431
 H         2.025636        -1.964542        -0.318375
 H         5.262247         0.303142         0.524643
 H         5.004616         0.071118        -1.163501
 H         4.896312         2.685010         0.025226
 H         3.657584         2.222494        -1.205512
 H         2.469247         0.535254         2.138858
