19
Iteration:   938
 C        -0.055667         0.066088         0.070831
 C         1.491501         0.058071         0.018482
 C         2.317370        -1.249578         0.219334
 C         3.273855        -0.129123         0.027169
 C         4.677847         0.441939        -0.220287
 C         4.221559         1.972948         0.036714
 O         2.974600         2.134069         0.664722
 C         2.546474         0.811033         0.991607
 O         2.306035         0.361530        -1.132334
 H        -0.414015        -0.279811         1.054681
 H        -0.542445         1.047159        -0.089627
 H        -0.534063        -0.597560        -0.639271
 H         2.224604        -1.570467         1.222982
 H         2.446252        -1.950033        -0.591612
 H         5.550369         0.050457         0.415736
 H         5.057627         0.236345        -1.192784
 H         4.933212         2.617144         0.529312
 H         4.131770         2.150573        -1.006214
 H         2.505661         0.767304         2.085370
