19
Iteration:  4659charge 0 multiplicity 1
 C         0.069284         0.189630         0.088129
 C         1.476437         0.011923         0.081433
 C         2.381292        -1.230209         0.325502
 C         3.260939        -0.110192        -0.060520
 C         4.681678         0.477140        -0.074083
 C         4.171943         2.020119        -0.042752
 O         2.844848         2.030095         0.467907
 C         2.540815         0.767413         0.943089
 O         2.322028         0.320918        -1.069171
 H        -0.382080        -0.252157         1.017389
 H        -0.336078         1.278470         0.009937
 H        -0.358810        -0.391133        -0.792434
 H         2.573738        -1.646543         1.366192
 H         2.329150        -2.045448        -0.374924
 H         4.992739         0.376031         0.917559
 H         5.314969         0.239608        -0.942662
 H         5.007381         2.548841         0.401007
 H         4.078225         2.391167        -1.109370
 H         2.641279         0.426940         2.023805
