19
Iteration:  4959
 C        -0.038033         0.189918         0.061990
 C         1.429918        -0.044731         0.173185
 C         2.324875        -1.347125         0.279557
 C         3.351188        -0.201728        -0.052337
 C         4.679298         0.595124        -0.029115
 C         4.185044         2.094912        -0.159408
 O         2.976751         2.168561         0.709381
 C         2.557489         0.826716         0.868786
 O         2.303501         0.162797        -1.187421
 H        -0.488330         0.141428         1.088341
 H        -0.147390         1.271456        -0.267791
 H        -0.716891        -0.427887        -0.572991
 H         2.323907        -2.044886         1.159147
 H         2.177500        -1.972294        -0.571613
 H         5.094400         0.300527         0.965367
 H         5.458687         0.396233        -0.806488
 H         4.849824         2.924679         0.222513
 H         3.968908         2.338918        -1.123614
 H         2.643789         0.461385         1.875399
