19
Iteration:  4926charge 0 multiplicity 1
 C        -0.017427         0.018891        -0.032472
 C         1.472327        -0.007888         0.053101
 C         2.387976        -1.183944         0.420695
 C         3.275639        -0.074596         0.011983
 C         4.591893         0.454682        -0.181225
 C         4.191884         1.996639        -0.156988
 O         3.060354         2.058550         0.753746
 C         2.457935         0.833922         0.907328
 O         2.316242         0.338874        -1.155346
 H        -0.321079         0.030483         1.045511
 H        -0.197663         1.072688        -0.344600
 H        -0.596027        -0.760659        -0.590622
 H         2.363472        -1.394935         1.499479
 H         2.368332        -1.967639        -0.323394
 H         5.243281         0.167454         0.693481
 H         5.179191         0.337939        -1.105855
 H         4.811372         2.733948         0.400209
 H         3.890784         2.264224        -1.090784
 H         2.437177         0.755598         2.004235
