19
Iteration:   790
 C        -0.045843         0.055857         0.049706
 C         1.440031        -0.000338         0.016364
 C         2.321908        -1.318582         0.257772
 C         3.234705        -0.111033        -0.108071
 C         4.685970         0.485174        -0.124898
 C         4.334726         2.054641        -0.000995
 O         3.066953         2.165175         0.767272
 C         2.518591         0.725073         0.967253
 O         2.192023         0.394028        -1.227263
 H        -0.380609         0.141342         1.105825
 H        -0.487860         0.996598        -0.334770
 H        -0.418495        -0.928689        -0.361384
 H         2.413838        -1.503661         1.364553
 H         2.238327        -2.219974        -0.500455
 H         5.174056         0.134443         0.784613
 H         5.351946         0.163623        -1.042958
 H         5.024999         2.621960         0.612801
 H         4.194891         2.637830        -0.911136
 H         2.387345         0.378298         1.983850
