19
Iteration:  3942
 C        -0.085980         0.266663        -0.073469
 C         1.442690        -0.098466         0.084895
 C         2.413426        -1.331466         0.420837
 C         3.329147        -0.074098        -0.076467
 C         4.629242         0.597353        -0.227659
 C         4.188843         2.132876         0.001544
 O         3.046177         2.059644         0.775232
 C         2.586883         0.759496         0.910997
 O         2.221747         0.133025        -1.155169
 H        -0.765329        -0.111486         0.666712
 H        -0.101885         1.340326         0.061332
 H        -0.407802        -0.026970        -1.035385
 H         2.539533        -1.531024         1.495789
 H         2.418855        -2.230056        -0.312282
 H         5.320510         0.179469         0.553391
 H         5.147716         0.480190        -1.289088
 H         4.882700         2.742036         0.459477
 H         3.728189         2.576927        -0.928236
 H         2.425145         0.512031         1.954541
