19
Iteration:  2425
 C         0.023997         0.185619         0.234685
 C         1.471238        -0.026758        -0.010099
 C         2.296713        -1.343425         0.296001
 C         3.304000        -0.069627        -0.004509
 C         4.648101         0.521771        -0.283151
 C         4.299536         2.126124         0.046360
 O         2.911994         2.091423         0.669022
 C         2.495533         0.758628         0.911902
 O         2.280652         0.199353        -1.246020
 H        -0.165998         0.212158         1.336814
 H        -0.436677         1.199269        -0.059187
 H        -0.545362        -0.566152        -0.340584
 H         2.520277        -1.677554         1.348040
 H         2.291639        -2.119708        -0.452293
 H         5.478626         0.148945         0.347086
 H         5.085017         0.522903        -1.318438
 H         5.135963         2.360566         0.692080
 H         4.209124         2.783743        -0.702806
 H         2.394481         0.701889         2.110050
