19
Iteration:   478
 C        -0.097873        -0.054096         0.164322
 C         1.431751         0.107165         0.061346
 C         2.272213        -1.281780         0.158841
 C         3.200250        -0.104995        -0.079227
 C         4.708824         0.496344        -0.099503
 C         4.311691         1.972610         0.008002
 O         3.031058         2.153717         0.787085
 C         2.554674         0.813260         0.955982
 O         2.315275         0.390595        -1.289722
 H        -0.323954        -0.617892         1.071460
 H        -0.682125         0.833357         0.018122
 H        -0.538235        -0.634972        -0.678848
 H         2.170637        -1.689288         1.134644
 H         2.262952        -1.950554        -0.774537
 H         5.140072         0.177001         0.798405
 H         5.351034         0.570771        -0.991321
 H         5.183771         2.378282         0.491991
 H         4.245277         2.256180        -1.067580
 H         2.595946         0.647505         2.033405
