19
Iteration:  2332
 C        -0.071202         0.063012         0.004586
 C         1.428253        -0.006665         0.082228
 C         2.308269        -1.226326         0.336703
 C         3.272996        -0.139742        -0.003929
 C         4.567971         0.557895        -0.273396
 C         4.135864         1.958636        -0.210030
 O         3.159033         2.116021         0.871846
 C         2.542712         0.821860         0.982849
 O         2.392497         0.296479        -1.098643
 H        -0.442573        -0.360260         0.949106
 H        -0.503966         1.051947         0.037867
 H        -0.379278        -0.378708        -0.964440
 H         2.474290        -1.603954         1.254282
 H         2.065842        -1.875670        -0.573307
 H         5.493516         0.449418         0.334454
 H         4.781235         0.384295        -1.311085
 H         5.008061         2.598213         0.057402
 H         3.551520         2.437459        -1.129313
 H         2.443042         0.404733         1.990254
