19
Iteration:  4761charge 0 multiplicity 1
 C        -0.027736         0.106296        -0.131803
 C         1.457266        -0.067134         0.140157
 C         2.372217        -1.328233         0.373043
 C         3.300713        -0.147720         0.094839
 C         4.545101         0.529004        -0.215324
 C         4.213981         2.085080        -0.179414
 O         3.044312         2.217511         0.749842
 C         2.551367         0.855113         0.960541
 O         2.245052         0.234467        -1.090894
 H        -0.659004         0.137653         0.765664
 H        -0.187895         1.042388        -0.586081
 H        -0.458678        -0.730175        -0.708833
 H         2.551269        -1.780027         1.345148
 H         2.536166        -1.969683        -0.532682
 H         5.265130         0.166283         0.632276
 H         4.997431         0.142744        -1.160205
 H         5.107635         2.502796         0.432334
 H         4.197438         2.358786        -1.219759
 H         2.586252         0.565537         2.024950
