19
Iteration:  2759charge 0 multiplicity 1
 C         0.042265         0.227607         0.102692
 C         1.481308        -0.035345         0.050383
 C         2.362525        -1.328256         0.422180
 C         3.261921        -0.101420        -0.165210
 C         4.602349         0.614781        -0.327604
 C         4.249238         2.087630         0.106141
 O         2.935898         2.077749         0.667358
 C         2.574542         0.710483         0.914464
 O         2.240418         0.158865        -1.168010
 H        -0.562603        -0.083050         0.939136
 H        -0.127416         1.349488         0.076111
 H        -0.302761        -0.149400        -0.932918
 H         2.341206        -1.704855         1.507784
 H         2.254751        -1.977249        -0.440824
 H         5.044773         0.276503         0.598503
 H         5.457202         0.654811        -1.050562
 H         5.015402         2.571721         0.905222
 H         3.997511         2.769000        -0.712734
 H         2.690788         0.442990         1.909525
