19
Iteration:  3505
 C        -0.151805        -0.029906         0.021117
 C         1.377143        -0.084037         0.064231
 C         2.378187        -1.205611         0.433724
 C         3.325783        -0.064863        -0.094216
 C         4.647616         0.536133        -0.246111
 C         4.364418         1.970705         0.069487
 O         3.090796         2.224594         0.720987
 C         2.591377         0.811552         0.809821
 O         2.152536         0.300128        -1.173685
 H        -0.506673        -0.051889         1.061032
 H        -0.559524         0.932787        -0.363028
 H        -0.700304        -0.812326        -0.516708
 H         2.332304        -1.476703         1.557157
 H         2.212179        -2.090473        -0.251012
 H         5.208489         0.102462         0.482295
 H         5.173147         0.296171        -1.183512
 H         5.084405         2.260038         0.823169
 H         4.420678         2.589823        -0.879950
 H         2.574055         0.704653         1.844735
