19
Iteration:  4833
 C        -0.004038         0.175656         0.164555
 C         1.418727        -0.025954         0.085970
 C         2.363891        -1.279614         0.355544
 C         3.318332        -0.086972        -0.002733
 C         4.638772         0.569543        -0.154865
 C         4.310214         2.074794         0.043500
 O         2.915387         2.132489         0.587242
 C         2.482784         0.856195         0.833833
 O         2.338720         0.089219        -1.215337
 H        -0.601907        -0.159064         1.037360
 H        -0.268837         1.264265        -0.020168
 H        -0.488841        -0.360550        -0.719546
 H         2.155908        -1.754845         1.360404
 H         2.305814        -1.979860        -0.462165
 H         5.367201         0.257877         0.557021
 H         5.110686         0.348715        -1.128210
 H         5.050711         2.479919         0.690004
 H         4.227589         2.450037        -1.051192
 H         2.257519         0.551140         1.904262
