19
Iteration:  1470
 C        -0.044567         0.040924         0.032949
 C         1.444169        -0.023814         0.041268
 C         2.423297        -1.328241         0.289251
 C         3.222498        -0.061347        -0.046483
 C         4.654162         0.477274        -0.267821
 C         4.294143         1.983956         0.001856
 O         3.068428         2.177623         0.740006
 C         2.483725         0.833013         0.994060
 O         2.167075         0.370098        -1.129622
 H        -0.475749        -0.518187         0.864089
 H        -0.325053         1.068244        -0.009706
 H        -0.335120        -0.484785        -0.888909
 H         2.505455        -1.749473         1.300901
 H         2.495886        -2.157645        -0.520506
 H         5.383421        -0.016957         0.467559
 H         5.054218         0.391366        -1.249914
 H         5.090097         2.450841         0.499131
 H         4.109851         2.555038        -0.848262
 H         2.518889         0.696510         2.113056
