19
Iteration:  3742
 C        -0.059793         0.037250         0.128299
 C         1.455948        -0.002831         0.015510
 C         2.298537        -1.248611         0.366543
 C         3.291722        -0.058370        -0.093048
 C         4.668339         0.494534        -0.282391
 C         4.318520         2.029479         0.132588
 O         2.996027         2.213428         0.675874
 C         2.566532         0.828742         0.856738
 O         2.177315         0.193372        -1.204659
 H        -0.263195        -0.419815         1.071908
 H        -0.255565         1.117900         0.089809
 H        -0.547947        -0.449343        -0.740758
 H         2.313838        -1.732949         1.384966
 H         2.207351        -2.028575        -0.413631
 H         5.319218         0.149551         0.607154
 H         5.336872         0.348450        -1.206210
 H         5.023126         2.241698         0.917175
 H         4.445177         2.701554        -0.669170
 H         2.686437         0.655516         1.952014
