19
Iteration:  2786
 C        -0.028984         0.203673         0.060196
 C         1.476415        -0.032796         0.063447
 C         2.366901        -1.323406         0.275660
 C         3.326076        -0.204564         0.034451
 C         4.654509         0.536790        -0.340122
 C         4.186206         2.052116         0.003941
 O         2.898661         2.130836         0.710185
 C         2.532697         0.738362         0.998146
 O         2.361584         0.275761        -1.111959
 H        -0.517791         0.067586         1.062156
 H        -0.137387         1.244389        -0.213751
 H        -0.493176        -0.367141        -0.708503
 H         2.354397        -1.663908         1.310771
 H         2.119457        -2.040835        -0.570449
 H         5.666038         0.279864         0.105621
 H         4.795460         0.589900        -1.408719
 H         4.892441         2.625451         0.518890
 H         3.949213         2.618421        -0.942200
 H         2.566857         0.544476         2.163199
