19
Iteration:   462charge 0 multiplicity 1
 C        -0.005038        -0.056442         0.126429
 C         1.436827         0.052654        -0.065314
 C         2.284482        -1.202682         0.181844
 C         3.321353        -0.052625        -0.043313
 C         4.637864         0.434251        -0.100628
 C         4.300526         1.983411        -0.000112
 O         3.108130         2.095256         0.818173
 C         2.436130         0.821427         0.845556
 O         2.234019         0.415750        -1.188774
 H        -0.010874        -0.299041         1.217117
 H        -0.526182         0.928146        -0.014703
 H        -0.460310        -0.823728        -0.501069
 H         2.346060        -1.680112         1.235476
 H         2.191347        -1.889791        -0.638048
 H         5.282944         0.139497         0.807699
 H         5.124051         0.058348        -1.035234
 H         4.936480         2.767733         0.590989
 H         3.983068         2.406617        -0.940125
 H         2.240390         0.516194         1.902489
