19
Iteration:   842charge 0 multiplicity 1
 C        -0.020516         0.201573        -0.126828
 C         1.469560        -0.000582         0.032796
 C         2.407528        -1.369543         0.275875
 C         3.250138        -0.099306         0.127656
 C         4.583640         0.492765        -0.332191
 C         4.199701         1.978255        -0.154094
 O         3.014823         2.085953         0.860374
 C         2.511178         0.807610         1.016875
 O         2.343084         0.366896        -1.000242
 H        -0.459477        -0.172377         0.797732
 H        -0.204869         1.265561        -0.332382
 H        -0.410585        -0.402797        -0.932075
 H         2.337658        -1.945825         1.197156
 H         2.344808        -1.996150        -0.674277
 H         5.489691         0.110380         0.194649
 H         4.849451         0.378198        -1.341365
 H         4.945713         2.696789         0.290548
 H         3.666128         2.321581        -1.065826
 H         2.428413         0.424893         2.071628
