19
Iteration:  2500
 C        -0.069704        -0.013227         0.043483
 C         1.381489         0.010682         0.171100
 C         2.351352        -1.259466         0.280284
 C         3.216883        -0.088792        -0.013608
 C         4.641452         0.516211        -0.383278
 C         4.374617         2.032368         0.012680
 O         2.987722         2.154502         0.662874
 C         2.524623         0.821896         1.006055
 O         2.348231         0.302605        -1.106875
 H        -0.486649        -0.266264         1.052103
 H        -0.538151         1.000848        -0.181699
 H        -0.363418        -0.784487        -0.690120
 H         2.329834        -1.574840         1.321725
 H         2.049023        -1.939010        -0.437476
 H         5.465880         0.031258         0.169007
 H         4.544294         0.226375        -1.458902
 H         5.180270         2.352664         0.805720
 H         4.331105         2.829114        -0.870747
 H         2.591059         0.630972         2.027490
