19
Iteration:  2910charge 0 multiplicity 1
 C         0.011788         0.195834         0.032758
 C         1.499633        -0.015417         0.169066
 C         2.298665        -1.371379         0.306395
 C         3.298088        -0.084043        -0.057473
 C         4.606146         0.546128        -0.303157
 C         4.175264         2.059409         0.021756
 O         2.956404         2.056926         0.576015
 C         2.569846         0.716822         0.961787
 O         2.274312         0.331710        -1.055053
 H        -0.477616        -0.291262         0.840752
 H        -0.087331         1.306713        -0.038871
 H        -0.451173        -0.251631        -0.885395
 H         2.545345        -1.815626         1.270139
 H         2.286681        -2.064245        -0.520231
 H         5.371510         0.273901         0.560324
 H         4.952109         0.314253        -1.391344
 H         4.935351         2.310372         0.879451
 H         4.230890         2.882397        -0.673017
 H         3.006571         0.598749         2.079660
