19
Iteration:   750charge 0 multiplicity 1
 C        -0.020985         0.149228         0.093363
 C         1.465034         0.016409         0.045785
 C         2.341814        -1.381342         0.202857
 C         3.311735        -0.160529        -0.039763
 C         4.578601         0.444763        -0.242214
 C         4.318402         2.084267         0.095634
 O         2.876650         2.107287         0.632521
 C         2.508346         0.794945         1.018933
 O         2.338966         0.379334        -1.164060
 H        -0.330936        -0.122948         1.115191
 H        -0.254428         1.201461        -0.190948
 H        -0.530089        -0.521365        -0.629486
 H         2.463370        -1.729880         1.208398
 H         2.041429        -2.109252        -0.502676
 H         5.346048         0.134873         0.452452
 H         5.135860         0.342719        -1.248715
 H         5.062413         2.256866         0.883242
 H         4.446868         2.706815        -0.814019
 H         2.652947         0.735965         2.163471
