19
Iteration:  2999
 C        -0.069726        -0.010548         0.039081
 C         1.444685         0.124755         0.099165
 C         2.329882        -1.231527         0.308823
 C         3.273196        -0.133855        -0.111029
 C         4.623852         0.514226        -0.301585
 C         4.302306         2.009153         0.039966
 O         3.004500         2.095902         0.658059
 C         2.589803         0.839741         0.995389
 O         2.249479         0.317770        -1.079559
 H        -0.470589        -0.062785         1.091641
 H        -0.620192         0.830482        -0.429590
 H        -0.371078        -0.881690        -0.491953
 H         2.387678        -1.701160         1.267853
 H         2.277353        -1.966360        -0.551079
 H         5.248032        -0.117015         0.492134
 H         4.962906         0.378061        -1.368776
 H         5.145846         2.475241         0.644011
 H         4.239174         2.722546        -0.791403
 H         2.732043         0.419219         2.076018
