19
Iteration:  2256charge 0 multiplicity 1
 C        -0.022943         0.215835         0.127417
 C         1.488063        -0.013076         0.144113
 C         2.419282        -1.363325         0.227954
 C         3.365142        -0.125777        -0.004592
 C         4.672289         0.552672        -0.278890
 C         4.269549         1.963225         0.027042
 O         2.851615         2.096264         0.565030
 C         2.547704         0.783299         0.883268
 O         2.191186         0.325685        -1.059961
 H        -0.314240         0.311586         1.220125
 H        -0.259660         1.182670        -0.351472
 H        -0.670871        -0.555480        -0.408182
 H         2.445451        -1.667610         1.267776
 H         2.417106        -2.204662        -0.585249
 H         5.386020         0.051960         0.425386
 H         5.162534         0.354427        -1.201348
 H         4.912500         2.370525         0.782426
 H         4.288125         2.719415        -0.793025
 H         2.595814         0.583136         2.074766
