19
Iteration:  3751
 C        -0.094733         0.126404         0.107524
 C         1.434996        -0.073742         0.055633
 C         2.344366        -1.283547         0.330548
 C         3.291752        -0.062526        -0.134363
 C         4.664015         0.542386        -0.242882
 C         4.354174         2.082365         0.154770
 O         2.986217         2.098774         0.581559
 C         2.564964         0.858917         0.923351
 O         2.218523         0.215369        -1.165181
 H        -0.477281        -0.327891         1.011858
 H        -0.559220         1.163406         0.198751
 H        -0.695716        -0.428806        -0.703496
 H         2.580672        -1.542567         1.423206
 H         2.178302        -2.191799        -0.398596
 H         5.248331        -0.037542         0.511790
 H         5.098893         0.352053        -1.206840
 H         5.147903         2.431937         0.873741
 H         4.362812         2.777327        -0.649688
 H         2.647103         0.547137         1.964757
