19
Iteration:  2909
 C         0.009576         0.194897         0.040001
 C         1.494645        -0.016442         0.164936
 C         2.301399        -1.369037         0.306682
 C         3.304579        -0.082253        -0.053732
 C         4.600960         0.542315        -0.305821
 C         4.181206         2.056780         0.015851
 O         2.958000         2.049590         0.582167
 C         2.564483         0.722013         0.967121
 O         2.280193         0.335043        -1.062706
 H        -0.502239        -0.281330         0.828112
 H        -0.110689         1.293293        -0.041129
 H        -0.447641        -0.270071        -0.891729
 H         2.519032        -1.829043         1.304153
 H         2.296407        -2.044180        -0.519702
 H         5.381908         0.302913         0.556987
 H         4.952499         0.336358        -1.401067
 H         4.924486         2.320083         0.852441
 H         4.235221         2.888252        -0.665900
 H         2.975443         0.599946         2.076589
