19
Iteration:  2657charge 0 multiplicity 1
 C        -0.113979         0.078422        -0.076128
 C         1.456227        -0.034617         0.110348
 C         2.468538        -1.325887         0.406923
 C         3.249367        -0.026039        -0.091045
 C         4.574811         0.532814        -0.272829
 C         4.319312         2.050018        -0.061386
 O         3.081827         2.146106         0.834142
 C         2.519656         0.795551         0.915146
 O         2.177184         0.280260        -1.123658
 H        -0.693466        -0.008866         0.908375
 H        -0.418603         1.000381        -0.568189
 H        -0.533110        -0.799028        -0.663913
 H         2.582976        -1.763897         1.384581
 H         2.453120        -2.157262        -0.345008
 H         5.223431         0.006197         0.484735
 H         5.136228         0.311092        -1.196076
 H         5.085887         2.725484         0.595850
 H         4.132073         2.591727        -0.988012
 H         2.721868         0.485915         1.885221
