19
Iteration:  3771
 C        -0.040678         0.203053         0.093183
 C         1.424471         0.005207         0.188670
 C         2.479153        -1.354235         0.348454
 C         3.315014        -0.080013        -0.045446
 C         4.625993         0.543516        -0.269792
 C         4.279857         1.971338         0.124068
 O         2.861213         2.068865         0.470448
 C         2.504066         0.726377         0.909792
 O         2.250231         0.340194        -1.105973
 H        -0.663885        -0.063155         0.958057
 H        -0.075058         1.351805        -0.057054
 H        -0.375411        -0.219887        -0.920113
 H         2.642439        -1.855602         1.332368
 H         2.447742        -2.091135        -0.584117
 H         5.461216         0.181582         0.265347
 H         4.966656         0.461681        -1.227037
 H         5.032220         2.304380         0.985108
 H         4.557345         2.673531        -0.715220
 H         2.681775         0.578888         1.972817
