19
Iteration:   416charge 0 multiplicity 1
 C         0.056351         0.224065        -0.106825
 C         1.447252        -0.003865         0.180785
 C         2.289880        -1.339128         0.209164
 C         3.294932        -0.118473        -0.060801
 C         4.676810         0.551697        -0.283076
 C         4.217163         2.136792        -0.053736
 O         2.950645         2.024356         0.796243
 C         2.573381         0.717424         1.078460
 O         2.238140         0.287356        -1.037391
 H        -0.626741         0.353557         0.771108
 H        -0.106478         1.112736        -0.767933
 H        -0.197322        -0.657560        -0.755426
 H         2.355348        -1.886221         1.182065
 H         2.103597        -2.002543        -0.664961
 H         5.530764        -0.045565         0.249013
 H         5.045996         0.545157        -1.306563
 H         5.022410         2.653177         0.538000
 H         3.937478         2.751681        -0.954503
 H         2.764908         0.216518         2.046482
