19
Iteration:  1905
 C         0.080474         0.179239         0.101532
 C         1.451006        -0.044674         0.168205
 C         2.369023        -1.252703         0.301709
 C         3.263471        -0.023885        -0.218847
 C         4.632136         0.535297        -0.358106
 C         4.303048         2.079445         0.142289
 O         2.887317         2.077007         0.689378
 C         2.579361         0.707676         0.878874
 O         2.184397         0.187635        -1.091217
 H        -0.454809         0.438142         1.052618
 H        -0.139138         1.109588        -0.504876
 H        -0.483483        -0.444595        -0.568184
 H         2.576935        -1.635030         1.346190
 H         2.244798        -2.089675        -0.406385
 H         5.424353         0.044366         0.210474
 H         5.068860         0.552868        -1.398959
 H         4.856353         2.395000         1.107604
 H         4.528299         2.999257        -0.602755
 H         2.603387         0.276569         2.036364
