19
Iteration:  4935charge 0 multiplicity 1
 C         0.014209         0.097389         0.032069
 C         1.465629         0.042681        -0.007345
 C         2.423145        -1.188374         0.384773
 C         3.285643        -0.085210        -0.051420
 C         4.624668         0.521221        -0.119225
 C         4.159266         1.970684        -0.124534
 O         3.036399         2.069429         0.745192
 C         2.492818         0.854304         0.947551
 O         2.274694         0.255385        -1.174153
 H        -0.410053        -0.030299         1.099341
 H        -0.371215         1.053022        -0.423984
 H        -0.555025        -0.726007        -0.609054
 H         2.453026        -1.572470         1.422060
 H         2.406517        -2.112599        -0.267664
 H         5.025347         0.161149         0.826115
 H         5.265300         0.164836        -0.884344
 H         4.940172         2.730045         0.126525
 H         3.813906         2.249245        -1.085419
 H         2.397634         0.389571         1.948341
