19
Iteration:  4558
 C        -0.078433        -0.067217        -0.109571
 C         1.442682        -0.003304         0.235163
 C         2.323438        -1.306675         0.386169
 C         3.288384         0.007638         0.054026
 C         4.652428         0.565653        -0.418128
 C         4.391429         1.964575         0.135325
 O         3.031170         2.209342         0.452398
 C         2.436410         0.866462         0.996075
 O         2.239756         0.295170        -0.980968
 H        -0.823491        -0.112975         0.771158
 H        -0.504599         0.659297        -0.921128
 H        -0.195581        -1.027165        -0.696240
 H         2.381676        -1.761908         1.358876
 H         2.173988        -2.218054        -0.299943
 H         5.533911         0.085185        -0.034093
 H         4.724361         0.613397        -1.442849
 H         5.107363         2.009683         0.935604
 H         4.802128         2.614085        -0.642328
 H         2.511165         0.803697         2.115957
