19
Iteration:  4054charge 0 multiplicity 1
 C        -0.046037        -0.035504         0.043894
 C         1.446888         0.058290         0.033973
 C         2.304481        -1.245479         0.272193
 C         3.251155        -0.056774        -0.157892
 C         4.631530         0.518659        -0.207779
 C         4.225125         2.080363         0.016367
 O         3.160582         2.156189         0.862903
 C         2.472382         0.892267         0.952010
 O         2.246915         0.182682        -1.214114
 H        -0.246920        -0.187124         1.064107
 H        -0.586915         0.825769        -0.276363
 H        -0.360437        -0.926050        -0.494561
 H         2.350552        -1.420314         1.344014
 H         2.068872        -1.996538        -0.483430
 H         5.208976         0.076364         0.762185
 H         5.445632         0.286076        -0.957055
 H         5.200205         2.370659         0.327809
 H         4.073386         2.486007        -1.026774
 H         2.425173         0.578894         1.957930
