19
Iteration:  2284charge 0 multiplicity 1
 C         0.001333         0.185063         0.062555
 C         1.471851        -0.023692         0.216373
 C         2.416526        -1.350998         0.246203
 C         3.252665        -0.045749        -0.098596
 C         4.583305         0.539187        -0.221155
 C         4.207809         2.043047        -0.029056
 O         2.990726         2.072735         0.665304
 C         2.594554         0.769611         0.923151
 O         2.219587         0.268777        -1.071550
 H        -0.505278         0.334886         1.009341
 H        -0.147170         1.168071        -0.438427
 H        -0.379556        -0.499182        -0.630977
 H         2.427453        -1.720240         1.321205
 H         2.438996        -2.012014        -0.564040
 H         5.105167        -0.078480         0.515963
 H         5.093936         0.398139        -1.199840
 H         4.989995         2.669208         0.489620
 H         4.008229         2.478738        -1.044068
 H         2.786841         0.448958         1.884494
