19
Iteration:  3154
 C        -0.017676         0.069703         0.011268
 C         1.449423         0.057398         0.110614
 C         2.309675        -1.309947         0.322133
 C         3.281277        -0.108435        -0.084844
 C         4.658411         0.499452        -0.303761
 C         4.236149         2.003515        -0.076137
 O         2.991586         2.115551         0.714179
 C         2.476777         0.809185         1.033187
 O         2.350099         0.334561        -1.089307
 H        -0.269666        -0.131625         1.119722
 H        -0.411391         1.050854        -0.176591
 H        -0.539496        -0.620858        -0.609202
 H         2.563800        -1.736293         1.300513
 H         2.109723        -1.987307        -0.446220
 H         5.447967         0.054535         0.424213
 H         5.151266         0.307239        -1.236420
 H         4.973794         2.522966         0.470585
 H         3.882994         2.508160        -1.010573
 H         2.421149         0.635705         2.050176
