19
Iteration:  1248
 C         0.027695         0.215202         0.010853
 C         1.426865         0.008311         0.036867
 C         2.456052        -1.384837         0.304871
 C         3.253935        -0.099535         0.018059
 C         4.698121         0.519583        -0.234716
 C         4.224073         2.061119        -0.007088
 O         3.005711         2.092190         0.727199
 C         2.477936         0.799405         0.944465
 O         2.185094         0.237139        -1.142497
 H        -0.249805        -0.194001         1.019583
 H        -0.132609         1.302589         0.220245
 H        -0.575193        -0.106226        -0.850707
 H         2.714898        -1.940073         1.322762
 H         2.357187        -1.912785        -0.647128
 H         5.227560         0.008523         0.607866
 H         5.131876         0.059329        -1.237223
 H         4.824367         2.817158         0.376548
 H         4.075452         2.507690        -1.046104
 H         2.318006         0.806112         2.032855
