19
Iteration:  2768charge 0 multiplicity 1
 C         0.012517         0.261349         0.062510
 C         1.512152        -0.027986         0.139655
 C         2.293791        -1.335514         0.381355
 C         3.307085        -0.047250        -0.133925
 C         4.643583         0.624715        -0.272178
 C         4.226800         2.097889         0.063531
 O         2.895511         2.022574         0.701315
 C         2.575064         0.723119         0.887119
 O         2.272298         0.163008        -1.179447
 H        -0.388591        -0.194771         0.934697
 H        -0.161246         1.342820         0.002965
 H        -0.510562        -0.271409        -0.808776
 H         2.465317        -1.670276         1.403059
 H         2.263046        -2.100666        -0.325717
 H         5.388703         0.261246         0.480761
 H         4.991242         0.503392        -1.350728
 H         5.008071         2.619173         0.744779
 H         4.254228         2.673718        -0.819359
 H         2.671298         0.356826         1.881942
