19
Iteration:  1228
 C        -0.034289         0.207921         0.162455
 C         1.421287        -0.016673         0.046308
 C         2.337994        -1.281339         0.279922
 C         3.306918        -0.130825        -0.025539
 C         4.620430         0.576394        -0.192885
 C         4.212657         1.986902        -0.023023
 O         2.939639         2.126472         0.710225
 C         2.507867         0.752682         0.916736
 O         2.425113         0.212734        -1.213260
 H        -0.494324         0.072551         1.146291
 H        -0.374477         1.243402         0.068018
 H        -0.625974        -0.256564        -0.592273
 H         2.130773        -1.661827         1.275257
 H         2.447528        -1.999364        -0.483495
 H         5.401167         0.258381         0.537103
 H         4.872265         0.394241        -1.338531
 H         5.037189         2.402680         0.527081
 H         4.217588         2.635074        -0.944728
 H         2.604523         0.391200         1.916323
