19
Iteration:  1056
 C         0.047693         0.302330         0.076361
 C         1.490428         0.015922         0.171206
 C         2.353030        -1.347994         0.226126
 C         3.343462        -0.168773        -0.046226
 C         4.621214         0.516963        -0.146936
 C         4.122146         2.036228        -0.135980
 O         2.935201         2.026438         0.654211
 C         2.525109         0.714683         0.940707
 O         2.334210         0.352505        -1.063552
 H        -0.677163        -0.101329         0.822087
 H        -0.093149         1.408843         0.005009
 H        -0.380021        -0.113137        -0.841377
 H         2.409654        -1.809922         1.295856
 H         2.198508        -2.176733        -0.480564
 H         5.299407         0.265142         0.617612
 H         5.222441         0.254032        -0.991784
 H         4.834631         2.792753         0.292294
 H         3.791999         2.278597        -1.139365
 H         2.571659         0.357017         1.982018
