19
Iteration:  4421charge 0 multiplicity 1
 C        -0.031449         0.070221        -0.193807
 C         1.470207         0.034443         0.191407
 C         2.268207        -1.315800         0.398886
 C         3.285400        -0.143498        -0.022699
 C         4.639545         0.532845        -0.228797
 C         4.075262         2.090349        -0.221379
 O         3.195569         2.130095         0.885403
 C         2.543895         0.830923         1.003996
 O         2.284706         0.217504        -1.107655
 H        -0.558955        -0.057710         0.730204
 H        -0.191226         1.045202        -0.688633
 H        -0.148648        -0.740428        -0.908611
 H         2.244500        -1.757939         1.433163
 H         2.151065        -2.129797        -0.320566
 H         5.432632         0.464885         0.591155
 H         5.128146         0.545161        -1.300924
 H         4.768021         2.893874         0.033916
 H         3.573052         2.383733        -1.165467
 H         2.435287         0.646871         2.066389
