19
Iteration:  4406charge 0 multiplicity 1
 C        -0.080639         0.066306        -0.196172
 C         1.386232        -0.032685         0.055195
 C         2.344312        -1.236170         0.419484
 C         3.262775        -0.061280        -0.004415
 C         4.611419         0.615998        -0.270629
 C         4.146926         2.039127        -0.157240
 O         3.195774         2.181102         0.975894
 C         2.642318         0.867790         0.957048
 O         2.218096         0.098586        -1.086559
 H        -0.779977        -0.023869         0.641258
 H        -0.253265         1.002064        -0.741939
 H        -0.304891        -0.768211        -0.843321
 H         2.520209        -1.616400         1.403994
 H         2.227735        -1.929323        -0.483200
 H         5.182228         0.312703         0.588708
 H         5.092131         0.207027        -1.085418
 H         5.084836         2.692026        -0.160621
 H         3.589759         2.211497        -1.093408
 H         2.787101         0.382466         1.954919
