19
Iteration:  2572charge 0 multiplicity 1
 C        -0.002667         0.241128         0.044035
 C         1.540759        -0.011042         0.151723
 C         2.410749        -1.355164         0.207399
 C         3.322305        -0.167517         0.003069
 C         4.641178         0.520128        -0.148560
 C         4.186294         2.038700        -0.203213
 O         2.922228         2.075300         0.699001
 C         2.541518         0.771939         1.019005
 O         2.231333         0.321741        -1.077633
 H        -0.602537        -0.151237         0.866981
 H        -0.255247         1.289237         0.017337
 H        -0.414231        -0.218750        -0.912573
 H         2.724980        -1.785703         1.219707
 H         2.337822        -2.038380        -0.672877
 H         5.242093         0.310784         0.734422
 H         5.032260         0.429784        -1.172431
 H         4.822955         2.756391         0.179708
 H         3.922419         2.217186        -1.205433
 H         2.573221         0.430317         2.160106
