19
Iteration:  4064
 C        -0.114076        -0.013726         0.041006
 C         1.440647         0.007237        -0.030729
 C         2.303977        -1.199215         0.348545
 C         3.261099        -0.056281        -0.048925
 C         4.628099         0.540319        -0.234779
 C         4.278118         2.072746        -0.015103
 O         3.151558         2.137004         0.901806
 C         2.508319         0.827873         0.857691
 O         2.294962         0.213115        -1.210744
 H        -0.349043        -0.241943         1.025916
 H        -0.631188         0.898529        -0.202742
 H        -0.521972        -0.827464        -0.557733
 H         2.364737        -1.649661         1.330371
 H         2.175491        -2.057178        -0.346033
 H         5.281928         0.223054         0.647352
 H         4.922836         0.259549        -1.281449
 H         5.050614         2.649340         0.494664
 H         3.939454         2.483957        -1.013273
 H         2.480051         0.568685         1.867541
