19
Iteration:  4472charge 0 multiplicity 1
 C         0.017388         0.221282         0.075532
 C         1.495999        -0.040308         0.140293
 C         2.396314        -1.357666         0.259098
 C         3.295853        -0.064777         0.043266
 C         4.635357         0.535012        -0.159891
 C         4.283527         2.028781        -0.073942
 O         2.854011         2.084159         0.533317
 C         2.459853         0.807768         0.910435
 O         2.311307         0.215808        -1.049004
 H        -0.428489        -0.151277         0.996329
 H        -0.008874         1.338935         0.102358
 H        -0.435588        -0.180252        -0.821239
 H         2.674283        -1.940492         1.117519
 H         2.245593        -1.954595        -0.715184
 H         5.173052         0.229317         0.711896
 H         5.190931         0.414226        -1.034644
 H         4.904841         2.739284         0.574262
 H         4.109649         2.593949        -1.008359
 H         2.437184         0.596108         2.021715
