19
Iteration:  2651
 C        -0.081790         0.092557        -0.068029
 C         1.445864        -0.074041         0.096549
 C         2.496829        -1.320492         0.374519
 C         3.235624        -0.058854        -0.125396
 C         4.532603         0.547842        -0.252981
 C         4.326103         2.071352        -0.016385
 O         3.087012         2.156710         0.831532
 C         2.584225         0.789436         0.938852
 O         2.167854         0.253890        -1.136573
 H        -0.650467         0.038613         0.809710
 H        -0.218997         1.073774        -0.583489
 H        -0.683988        -0.654736        -0.631912
 H         2.434747        -1.639257         1.504741
 H         2.327096        -2.164923        -0.254360
 H         5.169425         0.135580         0.503231
 H         5.120903         0.410175        -1.173418
 H         5.069758         2.689998         0.240260
 H         3.966340         2.539624        -0.979450
 H         2.440573         0.480812         2.116834
