19
Iteration:  1099
 C        -0.032725         0.166119        -0.008092
 C         1.455557         0.002646         0.130148
 C         2.347930        -1.316820         0.308084
 C         3.274290        -0.118269         0.056044
 C         4.620292         0.512458        -0.191112
 C         4.208498         2.041834        -0.152859
 O         3.097988         2.085811         0.746265
 C         2.508091         0.745149         0.947260
 O         2.254965         0.337956        -1.128790
 H        -0.533859        -0.451937         0.778271
 H        -0.260401         1.255159         0.089544
 H        -0.431564        -0.241026        -0.938794
 H         2.463556        -1.941095         1.208882
 H         2.246921        -1.959868        -0.552790
 H         5.434639         0.276504         0.460238
 H         5.000487         0.231854        -1.179450
 H         4.974210         2.726674         0.341789
 H         3.957836         2.324606        -1.195408
 H         2.443646         0.654745         2.073599
