19
Iteration:   608
 C        -0.099320         0.142907         0.019035
 C         1.417394         0.109434         0.045547
 C         2.500598        -1.428043         0.193001
 C         3.254342        -0.139075        -0.104110
 C         4.648520         0.497722        -0.101501
 C         4.290989         2.006688        -0.147313
 O         3.000169         2.081035         0.842010
 C         2.459004         0.756102         1.013787
 O         2.273368         0.442749        -1.099153
 H        -0.452151         0.223859         1.061638
 H        -0.458170         1.060126        -0.434070
 H        -0.534984        -0.751386        -0.459539
 H         2.707130        -1.995469         1.101632
 H         2.551300        -1.967915        -0.817236
 H         5.210318         0.039685         0.662235
 H         5.163750         0.026068        -1.030153
 H         5.010597         2.846759         0.134558
 H         3.876673         2.209872        -1.177901
 H         2.414018         0.637677         2.092467
