19
Iteration:  1380
 C         0.015971         0.213502         0.079944
 C         1.485950        -0.012971         0.107577
 C         2.358419        -1.355755         0.234873
 C         3.297606        -0.168886        -0.124119
 C         4.628837         0.536516        -0.254495
 C         4.268136         2.066603         0.029566
 O         2.854428         2.109729         0.659696
 C         2.534766         0.763428         0.981328
 O         2.317541         0.298510        -1.066212
 H        -0.430561         0.230863         1.097840
 H        -0.200992         1.211096        -0.391482
 H        -0.707292        -0.461093        -0.411566
 H         2.494154        -1.983078         1.203991
 H         2.175599        -2.110671        -0.558014
 H         5.428283         0.172465         0.397016
 H         5.109549         0.503632        -1.284552
 H         5.046303         2.369623         0.675746
 H         4.160231         2.550770        -0.984849
 H         2.617444         0.527465         2.137259
