19
Iteration:  1043charge 0 multiplicity 1
 C         0.020719         0.282391         0.049441
 C         1.515256         0.052323         0.057980
 C         2.230149        -1.277597         0.297608
 C         3.297636        -0.156748        -0.043366
 C         4.739569         0.625193        -0.232424
 C         4.128238         1.989725        -0.101057
 O         2.927440         1.981332         0.699910
 C         2.618225         0.683188         1.028436
 O         2.306094         0.238142        -1.105203
 H        -0.306586        -0.087914         1.041593
 H        -0.287810         1.323473        -0.133435
 H        -0.302537        -0.344614        -0.797442
 H         2.194481        -1.681258         1.317545
 H         2.012493        -1.884928        -0.548318
 H         5.202691         0.437556         0.673908
 H         5.295433         0.582197        -1.202776
 H         4.843177         2.696309         0.447137
 H         4.000226         2.488371        -1.122227
 H         2.539289         0.618817         2.162833
