19
Iteration:  2354charge 0 multiplicity 1
 C         0.010831         0.130327        -0.059524
 C         1.448045        -0.022501         0.133250
 C         2.337503        -1.306758         0.312330
 C         3.285501        -0.098558         0.008610
 C         4.621589         0.470430        -0.310095
 C         4.198466         2.054130        -0.168951
 O         3.093125         2.090088         0.795446
 C         2.609738         0.808641         1.007775
 O         2.174078         0.339903        -1.030290
 H        -0.413939        -0.469309         0.743813
 H        -0.537594         1.035577        -0.026977
 H        -0.104105        -0.335613        -1.058733
 H         2.331634        -1.659820         1.265588
 H         2.390054        -2.021370        -0.565819
 H         5.271206         0.363690         0.570469
 H         5.165282         0.068576        -1.143216
 H         4.663724         3.003112         0.120112
 H         3.708371         2.205742        -1.238519
 H         2.636014         0.555352         2.053977
