19
Iteration:   417
 C         0.045204         0.214474        -0.109266
 C         1.444342        -0.004993         0.187767
 C         2.293068        -1.333759         0.203857
 C         3.292997        -0.125751        -0.067994
 C         4.679747         0.545566        -0.276383
 C         4.206184         2.134584        -0.050300
 O         2.955310         2.033516         0.800344
 C         2.576594         0.720477         1.062201
 O         2.241617         0.290963        -1.035510
 H        -0.626500         0.362477         0.766027
 H        -0.124289         1.129564        -0.741539
 H        -0.222168        -0.666780        -0.728830
 H         2.371104        -1.900218         1.188493
 H         2.115420        -1.992000        -0.646074
 H         5.541229        -0.044345         0.240909
 H         5.066617         0.533124        -1.290243
 H         5.057907         2.661376         0.539064
 H         3.969510         2.739793        -0.958718
 H         2.762000         0.228740         2.041110
