19
Iteration:  4858charge 0 multiplicity 1
 C        -0.015064         0.157086        -0.107396
 C         1.400124        -0.041619         0.052861
 C         2.507139        -1.280307         0.523489
 C         3.261646        -0.093766        -0.103715
 C         4.604574         0.487745        -0.274226
 C         4.304826         1.995876        -0.000171
 O         2.893589         2.143615         0.615077
 C         2.574209         0.855778         0.988817
 O         2.245023         0.263715        -1.067240
 H        -0.428756        -0.320407         0.869814
 H        -0.353130         1.207970        -0.092290
 H        -0.634678        -0.391097        -0.924694
 H         2.608839        -1.461282         1.607331
 H         2.358022        -2.259537        -0.057681
 H         5.357066         0.089266         0.378600
 H         5.023173         0.303752        -1.249300
 H         5.129202         2.326552         0.675749
 H         4.230220         2.490253        -0.933755
 H         2.363036         0.582963         2.034459
