19
Iteration:   909charge 0 multiplicity 1
 C         0.007837         0.238223         0.103822
 C         1.431191        -0.041454         0.058075
 C         2.395808        -1.301506         0.270403
 C         3.217177        -0.120476        -0.062509
 C         4.598259         0.562124        -0.179624
 C         4.273632         2.066190        -0.105687
 O         2.979530         2.063679         0.796111
 C         2.498830         0.719557         0.916737
 O         2.323511         0.259523        -1.188081
 H        -0.597799        -0.195766         0.875069
 H        -0.179932         1.304850         0.222922
 H        -0.445614        -0.073989        -0.856914
 H         2.353289        -1.610204         1.330218
 H         2.588762        -2.116139        -0.538723
 H         4.989615         0.330751         0.825058
 H         5.243986         0.022706        -0.878894
 H         5.029031         2.720647         0.443834
 H         4.153213         2.480129        -1.168294
 H         2.467019         0.541971         2.033211
