19
Iteration:  3190charge 0 multiplicity 1
 C        -0.092387        -0.043679         0.048525
 C         1.445651         0.027882        -0.001871
 C         2.342817        -1.234082         0.336027
 C         3.272577        -0.093181        -0.046835
 C         4.696450         0.479520        -0.236547
 C         4.314074         2.034048         0.051245
 O         3.111174         2.132160         0.720165
 C         2.494974         0.907473         0.963462
 O         2.148430         0.293159        -1.179529
 H        -0.164264        -0.279943         1.058543
 H        -0.584959         0.911961        -0.254984
 H        -0.591576        -0.887064        -0.494427
 H         2.516054        -1.663278         1.272960
 H         2.212539        -2.039626        -0.426292
 H         5.237002         0.171731         0.594632
 H         5.077170         0.371688        -1.284090
 H         5.224436         2.508117         0.528785
 H         4.253000         2.617055        -0.956329
 H         2.498930         0.605759         1.974448
