19
Iteration:   660
 C        -0.097662         0.109355        -0.004855
 C         1.475082         0.074928         0.038008
 C         2.275205        -1.245333         0.309874
 C         3.319363        -0.141999        -0.090149
 C         4.643086         0.520391        -0.262597
 C         4.181581         1.994776         0.030742
 O         3.028156         2.107017         0.757829
 C         2.566079         0.749193         0.967163
 O         2.337866         0.347238        -1.096951
 H        -0.455360        -0.530052         0.810371
 H        -0.663281         1.016802        -0.225846
 H        -0.364156        -0.543764        -0.885875
 H         2.386211        -1.679386         1.276163
 H         2.092550        -2.023616        -0.479813
 H         5.287004         0.127190         0.531572
 H         5.104172         0.265558        -1.290819
 H         5.000317         2.356659         0.678400
 H         4.078676         2.611323        -0.847726
 H         2.850673         0.455000         2.037463
