19
Iteration:  4379
 C        -0.052196         0.029383        -0.090759
 C         1.395817        -0.041294         0.052403
 C         2.395621        -1.266357         0.456889
 C         3.251259        -0.090357        -0.006617
 C         4.601866         0.553120        -0.292626
 C         4.224759         2.033800        -0.071364
 O         3.132150         2.090350         0.820789
 C         2.458706         0.888674         0.897530
 O         2.279297         0.292179        -1.112058
 H        -0.617194        -0.053898         0.911848
 H        -0.206560         1.009299        -0.647464
 H        -0.374208        -0.895393        -0.747167
 H         2.602018        -1.316769         1.561163
 H         2.417662        -2.186672        -0.072655
 H         5.354411         0.197805         0.458592
 H         4.948501         0.184004        -1.340803
 H         5.087437         2.549953         0.290058
 H         4.011574         2.532220        -1.024061
 H         2.407646         0.629646         1.963965
