19
Iteration:  4511
 C         0.009176         0.110883         0.130680
 C         1.454084         0.020219         0.064281
 C         2.387527        -1.194639         0.465570
 C         3.269289        -0.131011        -0.197515
 C         4.724733         0.526896        -0.170965
 C         4.332722         2.053357         0.129233
 O         2.858916         2.113406         0.600493
 C         2.462425         0.816642         0.738849
 O         2.247331         0.180897        -1.185099
 H        -0.273645        -0.342532         1.125070
 H        -0.412458         1.101149         0.095628
 H        -0.591503        -0.404168        -0.671335
 H         2.579009        -1.477647         1.534647
 H         2.229195        -2.109190        -0.070988
 H         5.367775         0.093867         0.672368
 H         5.334932         0.370083        -1.139023
 H         4.957078         2.435801         0.890328
 H         4.493477         2.580903        -0.810103
 H         2.453050         0.665837         1.825006
