19
Iteration:  2591charge 0 multiplicity 1
 C         0.084404         0.224548         0.022404
 C         1.522315        -0.060146         0.123229
 C         2.325690        -1.332232         0.275869
 C         3.315700        -0.053689         0.039406
 C         4.658522         0.501520        -0.276292
 C         4.046812         1.988826        -0.195376
 O         2.888570         2.044639         0.697000
 C         2.514847         0.725842         1.024287
 O         2.409393         0.389860        -1.041641
 H        -0.280187        -0.036165         1.098876
 H        -0.072455         1.317199        -0.004462
 H        -0.480712        -0.311003        -0.782489
 H         2.057925        -1.818835         1.210266
 H         2.179872        -2.008334        -0.656269
 H         5.375521         0.480841         0.598779
 H         5.111678         0.197978        -1.229758
 H         4.922197         2.610581         0.232037
 H         3.693637         2.326133        -1.134630
 H         2.631828         0.405047         2.057197
