19
Iteration:  3889
 C        -0.147694        -0.072263        -0.026850
 C         1.442717         0.027671         0.015023
 C         2.246349        -1.226400         0.252291
 C         3.312430        -0.084748         0.079342
 C         4.729994         0.525649        -0.100494
 C         4.256153         1.922959        -0.221314
 O         2.990411         2.056130         0.664880
 C         2.601906         0.777356         1.044926
 O         2.307658         0.531431        -1.033780
 H        -0.389829        -0.301456         0.963106
 H        -0.574562         0.935646        -0.187335
 H        -0.510436        -0.838859        -0.698462
 H         2.191067        -1.527821         1.210804
 H         2.462296        -1.959179        -0.606839
 H         5.602339         0.342378         0.590521
 H         5.189273         0.122842        -1.082623
 H         4.950986         2.564162         0.235855
 H         3.866717         2.412428        -1.132203
 H         2.664811         0.466560         2.131469
