19
Iteration:   152
 C        -0.136294         0.080348        -0.059160
 C         1.439575         0.039942         0.057482
 C         2.436690        -1.299363         0.262128
 C         3.282097        -0.064343        -0.048885
 C         4.664477         0.469836        -0.151617
 C         4.213395         1.999694        -0.097816
 O         3.142067         2.141758         0.816943
 C         2.549775         0.809272         0.958343
 O         2.186730         0.299792        -1.104879
 H        -0.555987        -0.533686         0.708021
 H        -0.549704         1.048792         0.131106
 H        -0.657055        -0.289821        -0.915877
 H         2.677321        -1.687681         1.249837
 H         2.380641        -2.004433        -0.530913
 H         5.111521         0.195648         0.761979
 H         5.160054         0.062377        -1.128932
 H         4.888598         2.720235         0.374978
 H         3.850896         2.435606        -1.091849
 H         2.564928         0.619279         2.039899
