19
Iteration:  4128
 C         0.042855         0.297370        -0.034504
 C         1.465134        -0.111675         0.235564
 C         2.335575        -1.356382         0.245853
 C         3.302886        -0.090478        -0.029618
 C         4.704188         0.616209        -0.230530
 C         4.140043         2.065622        -0.090855
 O         2.875194         2.025309         0.598308
 C         2.609442         0.728070         1.049124
 O         2.275957         0.279051        -1.014682
 H        -0.629368        -0.086840         0.699294
 H        -0.006955         1.420601        -0.110292
 H        -0.171233        -0.167183        -1.035137
 H         2.549882        -1.741733         1.232798
 H         2.059456        -2.036551        -0.616114
 H         5.332139         0.264840         0.499443
 H         5.231388         0.363664        -1.182527
 H         4.840427         2.698982         0.544585
 H         4.014769         2.220801        -1.198502
 H         2.678296         0.456716         2.127575
