19
Iteration:   939
 C        -0.061323         0.061299         0.072340
 C         1.500488         0.064782         0.029928
 C         2.300482        -1.247889         0.222768
 C         3.281092        -0.127019         0.026805
 C         4.671122         0.435167        -0.222069
 C         4.234542         1.982074         0.034398
 O         2.970447         2.129751         0.660723
 C         2.549290         0.804880         0.990661
 O         2.304010         0.363551        -1.131496
 H        -0.425777        -0.274834         1.036204
 H        -0.553865         1.022298        -0.129518
 H        -0.492279        -0.621604        -0.647348
 H         2.211601        -1.566027         1.180916
 H         2.488096        -1.943081        -0.600750
 H         5.543336         0.081821         0.421852
 H         5.058438         0.238105        -1.178485
 H         4.960695         2.624713         0.542232
 H         4.126290         2.182669        -1.025255
 H         2.507679         0.740675         2.108027
