19
Iteration:  4106charge 0 multiplicity 1
 C         0.079696         0.175087        -0.118491
 C         1.503947         0.018690         0.222909
 C         2.384801        -1.327750         0.329892
 C         3.261369        -0.168712         0.003152
 C         4.579654         0.505437        -0.314621
 C         4.151294         2.077692        -0.073534
 O         2.885315         2.081180         0.687076
 C         2.618235         0.768748         0.987843
 O         2.266984         0.335169        -0.984435
 H        -0.590280        -0.181291         0.623734
 H        -0.063791         1.271337        -0.257359
 H        -0.060817        -0.337768        -1.090137
 H         2.480062        -1.921711         1.228524
 H         2.280845        -1.902360        -0.642914
 H         5.272253         0.181838         0.374277
 H         5.013698         0.374368        -1.350194
 H         4.997323         2.342321         0.502753
 H         4.051592         2.505399        -1.069265
 H         2.751436         0.469699         2.038101
