19
Iteration:   544
 C         0.018238         0.318638        -0.056953
 C         1.474880        -0.043460         0.159446
 C         2.373566        -1.305211         0.327931
 C         3.275275        -0.153940        -0.073487
 C         4.599608         0.590529        -0.404739
 C         4.121979         2.038571         0.033919
 O         2.953191         2.033113         0.789558
 C         2.532107         0.733217         0.980555
 O         2.380993         0.234806        -1.060200
 H        -0.691667        -0.057761         0.693034
 H         0.072996         1.412144        -0.102151
 H        -0.364368         0.004951        -1.052140
 H         2.360594        -1.985693         1.188292
 H         2.484935        -2.018651        -0.585385
 H         5.382181         0.235665         0.239144
 H         4.843106         0.507886        -1.532065
 H         4.889633         2.416014         0.744471
 H         4.031370         2.780447        -0.819438
 H         2.421170         0.323939         1.999491
