19
Iteration:  1838charge 0 multiplicity 1
 C        -0.030265         0.034405         0.037965
 C         1.474266         0.060863         0.198872
 C         2.286898        -1.278527         0.263999
 C         3.264054        -0.131927        -0.057580
 C         4.624179         0.500895        -0.255990
 C         4.241712         2.027608        -0.036253
 O         2.946504         2.109659         0.684964
 C         2.669899         0.750193         0.960726
 O         2.257059         0.420465        -1.096573
 H        -0.471563        -0.433367         0.904851
 H        -0.472170         1.031035        -0.111853
 H        -0.084407        -0.524511        -0.931237
 H         2.451792        -1.812200         1.231824
 H         2.173929        -2.056138        -0.557103
 H         5.285607         0.092714         0.531995
 H         4.883644         0.199218        -1.267526
 H         5.129084         2.476852         0.443706
 H         4.203877         2.738048        -0.966390
 H         2.793776         0.305174         2.003974
