19
Iteration:  3957charge 0 multiplicity 1
 C         0.006543         0.313580        -0.055250
 C         1.450081        -0.069775         0.072433
 C         2.397702        -1.344424         0.517012
 C         3.244718        -0.164868        -0.109890
 C         4.695998         0.697395        -0.332805
 C         4.204595         2.125009        -0.029680
 O         2.947844         2.026483         0.803918
 C         2.465147         0.682844         0.892719
 O         2.283450         0.165256        -1.144511
 H        -0.568686        -0.133001         0.764039
 H        -0.107437         1.422237        -0.044661
 H        -0.445978        -0.067552        -1.025147
 H         2.445312        -1.429514         1.582665
 H         2.303348        -2.249191        -0.115566
 H         5.494066         0.408371         0.444102
 H         5.189669         0.566810        -1.250899
 H         4.986391         2.616533         0.663655
 H         4.296498         2.690708        -0.931894
 H         2.646190         0.270913         1.941868
