19
Iteration:  3945
 C        -0.073944         0.275602        -0.056212
 C         1.402428        -0.098584         0.075846
 C         2.408678        -1.332406         0.453467
 C         3.335795        -0.090976        -0.113672
 C         4.652971         0.613431        -0.247021
 C         4.191742         2.140549        -0.001434
 O         3.042812         2.033033         0.778508
 C         2.570370         0.756026         0.894422
 O         2.229410         0.139528        -1.149924
 H        -0.739248        -0.109499         0.650002
 H        -0.071142         1.389884         0.009195
 H        -0.391035        -0.011129        -1.088307
 H         2.496051        -1.632348         1.459120
 H         2.512215        -2.274460        -0.168193
 H         5.350336         0.232898         0.592170
 H         5.069354         0.505335        -1.246086
 H         4.850656         2.811715         0.579801
 H         3.786650         2.610421        -0.888949
 H         2.448741         0.593347         2.012687
