19
Iteration:  1619charge 0 multiplicity 1
 C        -0.060674         0.121171         0.033000
 C         1.436496         0.017128         0.121981
 C         2.422837        -1.254757         0.248573
 C         3.270483        -0.056576        -0.041440
 C         4.637817         0.479977        -0.303651
 C         4.262473         1.964022        -0.024083
 O         2.981389         2.072258         0.714994
 C         2.574763         0.772506         0.999844
 O         2.212761         0.346328        -1.062246
 H        -0.561558        -0.392159         0.849161
 H        -0.380578         1.141248        -0.047097
 H        -0.254739        -0.420831        -0.943441
 H         2.525639        -1.686991         1.214061
 H         2.455721        -1.965117        -0.590848
 H         5.370531         0.212553         0.426031
 H         5.159439         0.382946        -1.214178
 H         5.007531         2.649710         0.496386
 H         3.917548         2.389876        -1.030301
 H         2.643154         0.523255         2.024578
