19
Iteration:  3052charge 0 multiplicity 1
 C        -0.074578         0.166641         0.022578
 C         1.494214         0.038670         0.114369
 C         2.353135        -1.314618         0.319559
 C         3.322712        -0.182827        -0.019708
 C         4.592017         0.555712        -0.212334
 C         4.198635         2.025948        -0.175544
 O         3.016611         2.134108         0.820773
 C         2.590096         0.768232         0.981914
 O         2.300907         0.306200        -1.157836
 H        -0.566168        -0.233491         0.931378
 H        -0.521655         1.108587        -0.412610
 H        -0.423819        -0.637292        -0.707976
 H         2.534588        -1.913196         1.280099
 H         1.970895        -2.023415        -0.510644
 H         5.404356         0.204225         0.606934
 H         4.858450         0.296561        -1.306626
 H         5.047634         2.590785         0.292072
 H         3.783098         2.456453        -1.076062
 H         2.646913         0.470240         1.966461
