19
Iteration:  3968
 C         0.047474         0.286301        -0.050533
 C         1.517351        -0.024323         0.066101
 C         2.348448        -1.339295         0.425187
 C         3.322098        -0.123111        -0.038149
 C         4.615059         0.628322        -0.348262
 C         4.203160         2.063590         0.007647
 O         2.869309         2.076196         0.756176
 C         2.564990         0.726004         0.957525
 O         2.311792         0.149861        -1.161729
 H        -0.452640        -0.049036         0.867477
 H        -0.060731         1.390777        -0.042408
 H        -0.443475        -0.187659        -0.948671
 H         2.477640        -1.641303         1.479629
 H         2.032988        -2.214271        -0.146258
 H         5.390173         0.234654         0.401541
 H         4.941855         0.572407        -1.355345
 H         4.979979         2.531379         0.705609
 H         3.842513         2.708853        -0.757047
 H         2.495141         0.471193         2.080504
