19
Iteration:  2226charge 0 multiplicity 1
 C        -0.047508         0.113046         0.161751
 C         1.483287         0.062841         0.157440
 C         2.320335        -1.240946         0.293222
 C         3.256713        -0.084890        -0.100318
 C         4.586924         0.586615        -0.330889
 C         4.353002         1.999654         0.087876
 O         2.904285         2.098187         0.632769
 C         2.532886         0.817899         0.915608
 O         2.378494         0.187482        -1.221681
 H        -0.308768        -0.223404         1.157638
 H        -0.379035         1.121013         0.010470
 H        -0.704438        -0.728844        -0.283030
 H         2.483242        -1.569317         1.405052
 H         2.068785        -2.220781        -0.288920
 H         5.313744         0.028222         0.289112
 H         4.934120         0.423040        -1.385421
 H         4.942824         2.326545         0.954550
 H         4.303341         2.777516        -0.548766
 H         2.519808         0.499048         1.916650
