19
Iteration:  3529
 C         0.017627        -0.077948         0.047926
 C         1.411604         0.107341         0.166746
 C         2.232873        -1.216941         0.360243
 C         3.223243        -0.032271        -0.062301
 C         4.623912         0.467836        -0.328150
 C         4.392915         2.020719         0.018519
 O         3.064335         2.149458         0.740094
 C         2.465804         0.904425         0.934559
 O         2.291126         0.245481        -1.219793
 H        -0.556096        -0.328924         1.023620
 H        -0.556276         0.720103        -0.381111
 H        -0.135319        -0.860431        -0.674709
 H         2.485820        -1.616577         1.445242
 H         2.096682        -2.032211        -0.318767
 H         5.297643        -0.006111         0.444611
 H         4.970090         0.085541        -1.285473
 H         5.065671         2.461041         0.697672
 H         4.220233         2.583475        -0.928451
 H         2.533512         0.658537         2.032953
