19
Iteration:  2973charge 0 multiplicity 1
 C        -0.017143         0.080984         0.177174
 C         1.452478        -0.013842         0.057840
 C         2.258027        -1.343216         0.329881
 C         3.251184        -0.108190        -0.059364
 C         4.679847         0.567389        -0.323670
 C         4.340822         2.016343         0.087215
 O         2.974191         2.147701         0.696968
 C         2.478639         0.850117         0.931408
 O         2.318161         0.280307        -1.243939
 H        -0.356213        -0.113351         1.172782
 H        -0.403850         1.099113        -0.054608
 H        -0.481621        -0.629109        -0.606013
 H         2.231167        -1.631628         1.464857
 H         2.302158        -2.191139        -0.357371
 H         5.475390         0.004565         0.289230
 H         4.810227         0.428304        -1.444252
 H         5.115403         2.410086         0.740511
 H         4.329612         2.724701        -0.731896
 H         2.497319         0.510535         1.900146
