19
Iteration:  4721charge 0 multiplicity 1
 C        -0.042218         0.032059        -0.182314
 C         1.484797         0.096150         0.045158
 C         2.292776        -1.201235         0.545995
 C         3.311325        -0.152309         0.020471
 C         4.613101         0.478349        -0.292580
 C         4.059848         2.014172        -0.193812
 O         3.075552         2.135215         0.922801
 C         2.574159         0.780816         0.956534
 O         2.378672         0.272363        -1.128920
 H        -0.537490        -0.320963         0.722415
 H        -0.402442         1.034860        -0.533533
 H        -0.211781        -0.609806        -1.031244
 H         2.458928        -1.351174         1.604671
 H         1.902276        -2.120247         0.003898
 H         5.607169         0.458022         0.170746
 H         4.958457         0.276572        -1.312514
 H         4.919483         2.648465        -0.064640
 H         3.434696         2.416734        -1.004158
 H         2.609003         0.522773         1.994398
