19
Iteration:   850charge 0 multiplicity 1
 C         0.018482         0.202873        -0.155950
 C         1.426855        -0.006526         0.028118
 C         2.391655        -1.299216         0.319056
 C         3.265081        -0.148840         0.082806
 C         4.495705         0.552788        -0.291007
 C         4.102219         1.962854        -0.150849
 O         3.028422         2.058574         0.812380
 C         2.582100         0.745627         1.037601
 O         2.392883         0.372024        -1.004651
 H        -0.285977        -0.162617         0.844600
 H         0.031666         1.301442        -0.170689
 H        -0.561541        -0.171927        -0.983761
 H         2.455541        -1.978873         1.116926
 H         2.405825        -1.818129        -0.571153
 H         5.400524         0.244426         0.318535
 H         4.642598         0.163863        -1.310877
 H         4.922901         2.484504         0.387923
 H         3.805266         2.465139        -1.091826
 H         2.583353         0.520063         2.144195
