19
Iteration:  1010charge 0 multiplicity 1
 C        -0.018281         0.181220        -0.002707
 C         1.414434        -0.007419         0.033346
 C         2.402790        -1.285007         0.340315
 C         3.229300        -0.120677        -0.055468
 C         4.583437         0.547448        -0.319450
 C         4.225501         2.022296         0.001034
 O         3.093762         2.101226         0.821827
 C         2.459590         0.823208         0.957420
 O         2.332299         0.207532        -1.127650
 H        -0.479913         0.204233         1.001322
 H        -0.285265         1.097230        -0.554222
 H        -0.522615        -0.679908        -0.504459
 H         2.468609        -1.636776         1.414107
 H         2.299853        -2.069548        -0.402479
 H         5.235771        -0.018307         0.260256
 H         5.081520         0.535084        -1.332295
 H         5.174412         2.404830         0.466828
 H         3.958746         2.614688        -0.932589
 H         2.218697         0.725006         2.060388
