19
Iteration:  2581
 C         0.073783         0.227567         0.083310
 C         1.483458        -0.019834         0.075179
 C         2.364071        -1.305960         0.267868
 C         3.305420        -0.138524         0.033165
 C         4.626216         0.543350        -0.199064
 C         4.170820         2.016421        -0.237510
 O         2.857332         2.060579         0.721698
 C         2.579375         0.700194         0.991034
 O         2.313443         0.369528        -1.037186
 H        -0.582395        -0.185722         0.926672
 H         0.047751         1.297780        -0.127186
 H        -0.281590        -0.258581        -0.888071
 H         2.433431        -1.994956         1.147755
 H         2.374957        -1.963002        -0.703083
 H         5.338621         0.145588         0.565739
 H         5.101215         0.110230        -1.091583
 H         4.780120         2.847724         0.150363
 H         3.843330         2.276857        -1.170887
 H         2.495855         0.617078         2.111643
