19
Iteration:  1966charge 0 multiplicity 1
 C        -0.011206         0.020344         0.168054
 C         1.466408        -0.088357         0.061892
 C         2.293979        -1.293056         0.265727
 C         3.224658        -0.049545        -0.100552
 C         4.635130         0.488539        -0.288894
 C         4.303234         1.987731         0.057475
 O         2.983815         2.193085         0.698421
 C         2.556344         0.846118         0.967717
 O         2.254974         0.370220        -1.191848
 H        -0.310713        -0.449232         1.084385
 H        -0.184564         1.067601         0.036604
 H        -0.503110        -0.668449        -0.632418
 H         2.359907        -1.447273         1.349102
 H         2.282824        -2.214714        -0.429144
 H         5.474465         0.014302         0.315168
 H         5.036668         0.458044        -1.338055
 H         4.952170         2.306575         0.877390
 H         4.413847         2.496043        -0.904135
 H         2.554061         0.543714         1.987535
