19
Iteration:   545
 C         0.020145         0.324320        -0.056927
 C         1.477049        -0.050170         0.169288
 C         2.357696        -1.314255         0.319369
 C         3.277780        -0.164157        -0.081666
 C         4.610075         0.614023        -0.410727
 C         4.111365         2.037195         0.037643
 O         2.965501         2.036546         0.789994
 C         2.528021         0.738544         0.978006
 O         2.384925         0.229315        -1.057263
 H        -0.684271        -0.062716         0.692876
 H         0.046128         1.424702        -0.135013
 H        -0.372021        -0.008366        -1.036607
 H         2.361541        -1.985835         1.200110
 H         2.464374        -2.026762        -0.548987
 H         5.382592         0.254029         0.275565
 H         4.832149         0.504635        -1.495340
 H         4.874863         2.376522         0.722001
 H         4.026685         2.764164        -0.808591
 H         2.401209         0.325921         1.992938
