19
Iteration:  4979charge 0 multiplicity 1
 C         0.057148         0.276885         0.057031
 C         1.462469        -0.039674         0.068091
 C         2.339767        -1.372838         0.295990
 C         3.324931        -0.053862         0.029779
 C         4.654152         0.576201        -0.147915
 C         4.191819         2.028357        -0.132263
 O         2.877720         2.056583         0.562822
 C         2.501674         0.706085         0.996344
 O         2.357683         0.247386        -1.082534
 H        -0.381710         0.025759         1.087832
 H        -0.160130         1.355959        -0.213632
 H        -0.573114        -0.407233        -0.625156
 H         2.367285        -1.719337         1.354501
 H         2.305183        -2.146720        -0.498403
 H         5.306752         0.425620         0.689901
 H         5.227190         0.406108        -1.014999
 H         4.746951         2.706466         0.522037
 H         4.030134         2.497018        -1.077760
 H         2.505108         0.584520         2.114684
