19
Iteration:  1596
 C         0.092492         0.149762         0.022105
 C         1.520032         0.027927         0.132597
 C         2.202647        -1.341291         0.304621
 C         3.293820        -0.162856        -0.089295
 C         4.573160         0.550515        -0.312747
 C         4.142384         2.069373        -0.065743
 O         2.951434         2.101406         0.775053
 C         2.607622         0.727289         0.982272
 O         2.340297         0.298869        -1.093072
 H        -0.404351        -0.122552         0.954610
 H         0.055696         1.249298        -0.046959
 H        -0.295578        -0.413471        -0.860267
 H         2.371029        -1.729902         1.326654
 H         1.906329        -2.007201        -0.464005
 H         5.501935         0.224098         0.214422
 H         5.029018         0.442169        -1.356750
 H         4.867739         2.567094         0.669099
 H         3.913372         2.744619        -0.996401
 H         2.723621         0.442114         1.999818
