19
Iteration:  4061charge 0 multiplicity 1
 C        -0.100014        -0.019599         0.035105
 C         1.461539         0.015752        -0.015908
 C         2.299653        -1.208181         0.319223
 C         3.256010        -0.053617        -0.083596
 C         4.644366         0.537012        -0.220701
 C         4.240790         2.094608         0.008409
 O         3.165691         2.142391         0.889116
 C         2.489642         0.851576         0.877889
 O         2.281147         0.196030        -1.206187
 H        -0.326832        -0.232792         1.100638
 H        -0.681382         0.913416        -0.199914
 H        -0.473832        -0.885611        -0.530481
 H         2.373493        -1.549019         1.343546
 H         2.107878        -2.076913        -0.402056
 H         5.173267         0.230408         0.581717
 H         5.058149         0.199337        -1.212345
 H         5.185598         2.471198         0.451085
 H         3.980183         2.390975        -1.016240
 H         2.480509         0.571639         1.945401
