19
Iteration:  3698charge 0 multiplicity 1
 C        -0.192971        -0.058871        -0.004065
 C         1.399476        -0.070971         0.092486
 C         2.348927        -1.207564         0.365572
 C         3.302716        -0.066249        -0.009153
 C         4.631837         0.513365        -0.276421
 C         4.397842         1.979208        -0.065075
 O         3.036387         2.138210         0.686289
 C         2.562982         0.855857         0.924585
 O         2.240516         0.423857        -1.068822
 H        -0.618381        -0.184605         0.960814
 H        -0.635236         0.844012        -0.520028
 H        -0.560452        -0.940353        -0.607540
 H         2.230881        -1.570596         1.393644
 H         2.466535        -2.060228        -0.364891
 H         5.478946         0.072253         0.425637
 H         5.076656         0.148351        -1.284395
 H         5.124157         2.239995         0.674008
 H         4.481777         2.623536        -0.893214
 H         2.637044         0.560653         2.035367
