19
Iteration:  3122
 C         0.074977         0.277728        -0.041879
 C         1.477755        -0.052695         0.217208
 C         2.400236        -1.356409         0.280189
 C         3.232916        -0.086766        -0.052373
 C         4.649235         0.582458        -0.218893
 C         4.222772         2.018036        -0.184620
 O         2.885685         2.059593         0.705945
 C         2.579158         0.707436         1.083802
 O         2.227678         0.290785        -1.084776
 H        -0.493610        -0.025621         0.845339
 H         0.105088         1.329905        -0.174384
 H        -0.406669        -0.110299        -0.904071
 H         2.626566        -1.844507         1.176749
 H         2.210163        -2.007265        -0.495949
 H         5.269473         0.376245         0.656819
 H         5.116751         0.326513        -1.141131
 H         4.943020         2.668048         0.266382
 H         3.968911         2.268708        -1.248248
 H         2.718893         0.383527         2.117732
