19
Iteration:  4417charge 0 multiplicity 1
 C        -0.015659         0.064669        -0.197348
 C         1.448570         0.023080         0.185618
 C         2.267348        -1.301794         0.384413
 C         3.267865        -0.146612        -0.010771
 C         4.654548         0.548309        -0.232851
 C         4.073668         2.079379        -0.216516
 O         3.208095         2.152026         0.917906
 C         2.569188         0.856486         0.961163
 O         2.265823         0.182877        -1.099860
 H        -0.705025        -0.011312         0.664420
 H        -0.306859         0.991934        -0.701773
 H        -0.246737        -0.714507        -0.913684
 H         2.319912        -1.728288         1.371122
 H         2.239406        -2.188814        -0.333211
 H         5.383706         0.416565         0.544646
 H         5.118064         0.545535        -1.164921
 H         4.866240         2.866387         0.056303
 H         3.501773         2.374432        -1.113212
 H         2.591986         0.657050         2.063533
