19
Iteration:  4321
 C        -0.052743         0.189247         0.155464
 C         1.449078        -0.058362         0.077954
 C         2.445199        -1.348823         0.332667
 C         3.282309        -0.095651        -0.089533
 C         4.738898         0.527406        -0.132945
 C         4.361972         2.010191         0.131042
 O         2.825573         2.110724         0.415570
 C         2.458802         0.827899         0.889213
 O         2.214507         0.297876        -1.129565
 H        -0.201635        -0.219370         1.137631
 H        -0.096091         1.301858         0.195551
 H        -0.541130        -0.257305        -0.709537
 H         2.717621        -1.881346         1.259285
 H         2.425455        -2.195843        -0.447412
 H         5.393925        -0.010751         0.694563
 H         5.220812         0.369472        -1.205003
 H         4.827010         2.515604         0.991214
 H         4.385171         2.557902        -0.807151
 H         2.537017         0.712238         1.968669
