19
Iteration:  2861
 C        -0.041138         0.026890         0.044050
 C         1.460166         0.031403         0.067844
 C         2.321789        -1.263881         0.286117
 C         3.264956        -0.083908        -0.033895
 C         4.557790         0.589149        -0.231814
 C         4.226186         2.036838        -0.121585
 O         3.150148         2.075295         0.873548
 C         2.555540         0.764869         0.965963
 O         2.270409         0.302649        -1.202472
 H        -0.527935        -0.211108         1.058944
 H        -0.282707         1.007464        -0.341098
 H        -0.388073        -0.685580        -0.676826
 H         2.335443        -1.565280         1.382775
 H         2.267231        -2.042909        -0.542254
 H         4.940239         0.202713         0.662356
 H         5.086661         0.230807        -1.042569
 H         5.003902         2.677961         0.176019
 H         3.851357         2.550249        -1.057544
 H         2.372920         0.625518         1.959305
