19
Iteration:  3082
 C         0.027881         0.304596         0.064486
 C         1.512054        -0.024542        -0.018454
 C         2.290412        -1.331281         0.352136
 C         3.338503        -0.037970        -0.002256
 C         4.648231         0.607816        -0.226963
 C         4.113901         1.997866        -0.221724
 O         2.980832         2.017421         0.809611
 C         2.541698         0.700811         1.042787
 O         2.355854         0.231846        -1.165686
 H        -0.243841        -0.187998         0.959120
 H        -0.329222         1.390105         0.113563
 H        -0.557406        -0.261960        -0.772109
 H         2.282877        -1.694365         1.435423
 H         2.092819        -2.105626        -0.450868
 H         5.442318         0.292713         0.394751
 H         5.089030         0.335739        -1.226451
 H         4.679840         2.825526         0.252159
 H         3.534803         2.389001        -1.055858
 H         2.481138         0.467691         2.201497
