19
Iteration:    36
 C        -0.016977         0.229617         0.246117
 C         1.469076         0.012658         0.016588
 C         2.276151        -1.226916         0.217476
 C         3.375068        -0.122040        -0.097365
 C         4.725936         0.539424        -0.075119
 C         4.150861         2.028418        -0.043133
 O         2.928635         2.055540         0.717238
 C         2.525076         0.740553         0.804725
 O         2.324736         0.227284        -1.191921
 H        -0.169045         0.233675         1.360160
 H        -0.346309         1.194262        -0.162374
 H        -0.626174        -0.624573        -0.216341
 H         2.292272        -1.822601         1.173631
 H         2.226374        -1.813678        -0.683814
 H         5.249701         0.179560         0.921391
 H         5.409764         0.352258        -0.848077
 H         4.795006         2.746405         0.473334
 H         3.957749         2.273282        -1.058426
 H         2.618113         0.385267         1.829774
