19
Iteration:  2738
 C        -0.019233         0.192935         0.072197
 C         1.497907        -0.066022         0.134685
 C         2.437457        -1.344355         0.312662
 C         3.277768        -0.061359        -0.164377
 C         4.625931         0.512395        -0.176383
 C         4.313678         2.048469         0.095682
 O         2.911077         2.150925         0.649290
 C         2.541911         0.795223         0.875094
 O         2.157200         0.193957        -1.177527
 H        -0.455205        -0.274919         0.957134
 H        -0.226807         1.294278         0.258023
 H        -0.495024        -0.144411        -0.902951
 H         2.824104        -1.520340         1.378352
 H         2.361747        -2.150952        -0.459424
 H         5.262058         0.235727         0.625114
 H         5.025838         0.431216        -1.194741
 H         4.964947         2.490384         0.927141
 H         4.375876         2.731561        -0.836622
 H         2.679528         0.508917         1.930819
