19
Iteration:  1113
 C        -0.067503         0.066183        -0.007469
 C         1.461835         0.098816         0.110329
 C         2.197741        -1.306986         0.401807
 C         3.305826        -0.156919        -0.116180
 C         4.692215         0.538483        -0.304506
 C         4.207793         1.993552        -0.096873
 O         3.029813         2.103352         0.800638
 C         2.599521         0.814845         0.956655
 O         2.347451         0.332569        -1.098320
 H        -0.515780        -0.418807         0.867629
 H        -0.597472         1.027074        -0.129272
 H        -0.204745        -0.486982        -0.948928
 H         2.213615        -1.709071         1.474179
 H         1.818667        -2.043250        -0.394889
 H         5.259735         0.237240         0.552531
 H         5.083934         0.445286        -1.241681
 H         5.039960         2.547391         0.320701
 H         3.939121         2.493841        -0.973947
 H         2.687921         0.412933         1.949133
