19
Iteration:  1771
 C         0.022443         0.199947         0.081984
 C         1.516304         0.047035         0.050311
 C         2.262493        -1.302453         0.284208
 C         3.329237        -0.172451        -0.002550
 C         4.627617         0.605029        -0.301261
 C         4.135218         1.988647        -0.115773
 O         3.010901         2.021062         0.843298
 C         2.517023         0.733975         0.950227
 O         2.328822         0.316219        -1.146796
 H        -0.227607        -0.196968         1.039729
 H        -0.324399         1.201048         0.052577
 H        -0.475712        -0.428911        -0.707634
 H         2.473439        -1.736215         1.264693
 H         2.097566        -2.053104        -0.521117
 H         5.423117         0.548989         0.438190
 H         5.027437         0.542155        -1.279200
 H         4.886374         2.602126         0.261931
 H         3.820704         2.455814        -1.056650
 H         2.466138         0.519760         2.034935
