19
Iteration:  1292
 C        -0.040335         0.057250        -0.071757
 C         1.513420         0.083882         0.154097
 C         2.214635        -1.345505         0.346243
 C         3.281355        -0.092670        -0.007438
 C         4.680609         0.462157        -0.256693
 C         4.155257         2.051642        -0.163383
 O         3.030287         2.067729         0.768293
 C         2.555576         0.760877         1.044477
 O         2.341198         0.414842        -1.094972
 H        -0.429982        -0.553889         0.777163
 H        -0.458215         1.095501        -0.088988
 H        -0.150192        -0.465313        -1.038251
 H         2.122513        -1.902026         1.415144
 H         2.057645        -1.866439        -0.597463
 H         5.518274         0.269328         0.423449
 H         5.199320         0.368878        -1.313612
 H         4.868275         2.759345         0.200528
 H         3.820899         2.509827        -1.162184
 H         2.707990         0.388149         2.107092
