19
Iteration:  3149
 C        -0.022420         0.111922         0.013145
 C         1.457753         0.041344         0.111122
 C         2.333936        -1.302148         0.328661
 C         3.297796        -0.130406        -0.037925
 C         4.684745         0.477032        -0.297202
 C         4.143852         2.047332        -0.064108
 O         3.004586         2.099235         0.682576
 C         2.563186         0.763826         0.995953
 O         2.295678         0.358710        -1.073666
 H        -0.335614        -0.178862         1.042847
 H        -0.392971         1.129803        -0.329427
 H        -0.562771        -0.572283        -0.708398
 H         2.454861        -1.773534         1.372966
 H         2.089720        -2.047828        -0.530903
 H         5.454971         0.190719         0.470640
 H         5.179287         0.286582        -1.290726
 H         4.909398         2.604539         0.578031
 H         4.065997         2.407637        -1.101610
 H         2.352427         0.574895         2.192986
