19
Iteration:   266
 C        -0.090798         0.113646        -0.122957
 C         1.413201         0.024729         0.146282
 C         2.357326        -1.214417         0.406080
 C         3.262270        -0.089951        -0.118258
 C         4.624705         0.489080        -0.351957
 C         4.271870         2.141231         0.070745
 O         3.046207         2.032610         0.817411
 C         2.596789         0.752328         1.001880
 O         2.266760         0.270668        -1.151034
 H        -0.654848        -0.143150         0.781384
 H        -0.262787         1.063840        -0.672182
 H        -0.403503        -0.791591        -0.665694
 H         2.487358        -1.882943         1.276912
 H         2.306059        -1.982962        -0.426170
 H         5.425456         0.079496         0.303857
 H         4.717185         0.569620        -1.396337
 H         5.064258         2.766955         0.669695
 H         4.136419         2.587618        -0.929228
 H         2.477932         0.334384         2.054476
