19
Iteration:  4139charge 0 multiplicity 1
 C         0.024040         0.284452         0.027147
 C         1.476278        -0.044037         0.119829
 C         2.379369        -1.338717         0.308409
 C         3.324992        -0.160765        -0.024903
 C         4.685122         0.570869        -0.190352
 C         4.128491         2.050662        -0.118285
 O         2.891341         2.043737         0.656543
 C         2.541543         0.692462         0.920857
 O         2.304964         0.280851        -1.027116
 H        -0.559971        -0.024909         0.868263
 H         0.010781         1.407579         0.038962
 H        -0.503386        -0.030745        -0.909288
 H         2.393626        -1.921458         1.225540
 H         2.371307        -2.067994        -0.540209
 H         5.286008         0.390085         0.640626
 H         5.227701         0.493933        -1.147657
 H         4.902518         2.756594         0.344298
 H         3.891663         2.633040        -1.090135
 H         2.641868         0.553945         2.023109
