19
Iteration:  4423charge 0 multiplicity 1
 C        -0.029103         0.078045        -0.189542
 C         1.474828         0.037201         0.179855
 C         2.272555        -1.319607         0.410142
 C         3.294313        -0.138904        -0.024981
 C         4.635842         0.535588        -0.235441
 C         4.078706         2.093223        -0.220782
 O         3.181554         2.115990         0.869900
 C         2.534802         0.817981         1.023977
 O         2.295940         0.234363        -1.107038
 H        -0.549826        -0.085596         0.792783
 H        -0.150495         1.061866        -0.668226
 H        -0.123509        -0.781816        -0.922291
 H         2.231618        -1.747321         1.452318
 H         2.094011        -2.063240        -0.327526
 H         5.399629         0.468756         0.570658
 H         5.100620         0.486874        -1.282908
 H         4.752053         2.881034         0.004158
 H         3.616529         2.358649        -1.186522
 H         2.377788         0.622729         2.088321
