19
Iteration:    74charge 0 multiplicity 1
 C         0.032592         0.200498        -0.015407
 C         1.447027        -0.120112         0.120707
 C         2.428058        -1.314040         0.294324
 C         3.234365        -0.099307        -0.044974
 C         4.598572         0.479693        -0.258137
 C         4.205457         2.034482        -0.071224
 O         3.005285         2.089712         0.691480
 C         2.484796         0.752957         0.948303
 O         2.254038         0.370408        -1.012021
 H        -0.448286         0.149126         0.970281
 H        -0.111725         1.234908        -0.429398
 H        -0.531571        -0.449312        -0.664602
 H         2.521336        -1.816115         1.252487
 H         2.437945        -2.071971        -0.534680
 H         5.229501         0.248232         0.660261
 H         5.121927         0.351148        -1.318968
 H         5.054356         2.490373         0.506335
 H         4.159010         2.814678        -0.986506
 H         2.766126         0.526564         2.027625
