19
Iteration:  3409
 C        -0.008443         0.265012        -0.003870
 C         1.516546        -0.023056         0.068251
 C         2.413673        -1.308900         0.350788
 C         3.389131        -0.090201         0.023239
 C         4.670723         0.424738        -0.273669
 C         4.246641         2.149141        -0.003808
 O         2.915544         2.181816         0.766697
 C         2.520533         0.761936         0.946812
 O         2.124934         0.096513        -1.213143
 H        -0.570117        -0.110613         0.878521
 H        -0.144635         1.356750        -0.091516
 H        -0.430629        -0.177986        -0.911008
 H         2.636986        -1.597527         1.364506
 H         2.295489        -2.062583        -0.392273
 H         5.400746         0.088520         0.591105
 H         5.205674         0.211914        -1.257166
 H         5.002548         2.659068         0.585818
 H         3.951989         2.589830        -0.974517
 H         2.535806         0.492427         2.089359
