19
Iteration:  2031charge 0 multiplicity 1
 C         0.020407         0.136901        -0.002382
 C         1.496886         0.028161         0.075128
 C         2.392016        -1.346898         0.310759
 C         3.264579        -0.120174         0.057494
 C         4.581547         0.537959        -0.315985
 C         4.098285         2.000305        -0.251828
 O         3.046619         2.028670         0.826472
 C         2.513987         0.770251         1.054501
 O         2.328669         0.424449        -1.082087
 H        -0.502821        -0.345584         0.800545
 H        -0.234524         1.178294        -0.032082
 H        -0.299199        -0.459396        -0.936145
 H         2.362362        -1.786667         1.268971
 H         2.325113        -2.079305        -0.551146
 H         5.310983         0.348748         0.487567
 H         4.770497         0.282584        -1.373918
 H         4.917652         2.580352         0.327164
 H         3.837558         2.529866        -1.183290
 H         2.622859         0.477931         2.191595
