19
Iteration:  4670charge 0 multiplicity 1
 C        -0.087445         0.184635         0.015955
 C         1.498978         0.005361         0.158993
 C         2.408678        -1.359317         0.305937
 C         3.306301        -0.111432        -0.005562
 C         4.637229         0.504569        -0.042677
 C         4.216160         1.993907        -0.143108
 O         2.872103         2.087032         0.533495
 C         2.602280         0.777504         0.987785
 O         2.297727         0.340153        -1.108936
 H        -0.621176        -0.269207         0.891508
 H        -0.295666         1.321155        -0.059208
 H        -0.448800        -0.321165        -0.936535
 H         2.519760        -1.752029         1.369792
 H         2.409433        -2.053157        -0.500463
 H         5.255773         0.182155         0.754541
 H         5.377576         0.377458        -0.848965
 H         4.810055         2.759924         0.356919
 H         4.009785         2.268568        -1.213551
 H         2.799377         0.759158         2.095651
