19
Iteration:  1888
 C        -0.061727         0.227899         0.062745
 C         1.498245        -0.014562         0.100359
 C         2.498861        -1.323933         0.376641
 C         3.287985        -0.156132        -0.110949
 C         4.558920         0.611307        -0.397088
 C         4.258642         1.990536         0.163276
 O         2.958284         2.081939         0.725078
 C         2.563142         0.804947         0.970565
 O         2.191612         0.242403        -1.237790
 H        -0.389864         0.216626         1.094725
 H        -0.303195         1.202447        -0.356222
 H        -0.527138        -0.598595        -0.537377
 H         2.615449        -1.695532         1.391633
 H         2.268844        -2.125293        -0.300679
 H         5.285807         0.150532         0.290042
 H         4.824968         0.657539        -1.435222
 H         5.019018         2.385037         0.833038
 H         4.356600         2.637381        -0.617778
 H         2.721225         0.349328         1.883710
