19
Iteration:  2678
 C        -0.034253        -0.054050        -0.008604
 C         1.459755         0.069230         0.125507
 C         2.323458        -1.175751         0.285184
 C         3.277225        -0.060449        -0.023829
 C         4.632232         0.503395        -0.297825
 C         4.293452         1.966969         0.021099
 O         3.010939         2.100741         0.675067
 C         2.551959         0.825818         1.017887
 O         2.257533         0.314425        -1.106816
 H        -0.581524        -0.280810         0.961563
 H        -0.465446         0.835623        -0.448235
 H        -0.385709        -0.902092        -0.603293
 H         2.366716        -1.639581         1.233670
 H         2.074663        -1.977688        -0.456583
 H         5.539863         0.157992         0.284194
 H         5.023337         0.390178        -1.319876
 H         5.112616         2.578643         0.661273
 H         4.136225         2.629197        -0.852797
 H         2.363235         0.719698         2.050492
