19
Iteration:  2509
 C        -0.075615        -0.008003         0.051501
 C         1.448660         0.066210         0.135141
 C         2.302041        -1.215434         0.330671
 C         3.311386        -0.057881        -0.002459
 C         4.561396         0.461849        -0.397941
 C         4.374778         2.035017         0.017913
 O         2.975087         2.108909         0.719938
 C         2.495356         0.829821         0.907472
 O         2.340429         0.278120        -1.098930
 H        -0.289015        -0.451102         0.984062
 H        -0.561495         0.960901        -0.071955
 H        -0.489405        -0.741007        -0.691740
 H         2.279880        -1.705620         1.344492
 H         2.204399        -1.955270        -0.408810
 H         5.429193         0.117870         0.177466
 H         4.857722         0.421302        -1.489508
 H         5.244036         2.403420         0.679236
 H         4.199962         2.845599        -0.900242
 H         2.584648         0.627740         1.968959
