19
Iteration:  4205
 C        -0.095887         0.022307        -0.056154
 C         1.448557         0.033113         0.115707
 C         2.308981        -1.243668         0.299225
 C         3.238933        -0.097273        -0.067336
 C         4.614811         0.576947        -0.190476
 C         4.290040         2.074162        -0.090392
 O         3.073699         2.069963         0.688279
 C         2.603053         0.781588         1.033597
 O         2.232077         0.318941        -1.047141
 H        -0.596012        -0.007280         0.916897
 H        -0.434586         0.868589        -0.704820
 H        -0.259092        -0.953120        -0.595588
 H         2.367521        -1.705555         1.313279
 H         2.368993        -2.034042        -0.428449
 H         5.183889         0.289689         0.602902
 H         5.078861         0.265845        -1.127936
 H         5.173156         2.625244         0.350292
 H         4.163196         2.334314        -1.173310
 H         2.681990         0.386196         2.096854
