19
Iteration:  4776charge 0 multiplicity 1
 C        -0.053488         0.146012        -0.017626
 C         1.437934        -0.026643         0.087683
 C         2.512722        -1.339423         0.328662
 C         3.267816        -0.024410        -0.024267
 C         4.673904         0.417461        -0.159904
 C         4.246615         1.966787        -0.068919
 O         2.932322         2.169697         0.612120
 C         2.488534         0.858588         0.990139
 O         2.266705         0.271429        -1.066449
 H        -0.480485         0.221276         0.961048
 H        -0.165970         1.114380        -0.547984
 H        -0.420154        -0.645775        -0.609398
 H         2.528796        -1.815862         1.318959
 H         2.338495        -2.104696        -0.415038
 H         5.229142         0.173015         0.749131
 H         5.142963         0.277457        -1.137256
 H         4.901474         2.698070         0.306754
 H         3.877883         2.366686        -1.030901
 H         2.497549         0.729577         2.078688
