19
Iteration:   294
 C         0.040490        -0.033570        -0.008713
 C         1.468799        -0.000969         0.013576
 C         2.299162        -1.333521         0.257021
 C         3.222211        -0.071722         0.045706
 C         4.590416         0.447083        -0.260945
 C         4.326605         2.002212        -0.091642
 O         3.031205         2.114897         0.781232
 C         2.453007         0.860481         1.043407
 O         2.301539         0.494777        -1.094029
 H        -0.207718        -0.399738         1.011098
 H        -0.414850         0.940477        -0.205806
 H        -0.433593        -0.701639        -0.771018
 H         2.275754        -2.007245         1.114914
 H         2.313352        -1.823590        -0.740237
 H         5.357662         0.176655         0.486895
 H         4.901819         0.230866        -1.328441
 H         5.088780         2.397424         0.521257
 H         4.211104         2.443309        -1.123714
 H         2.300448         0.611913         2.099227
