19
Iteration:  4071
 C        -0.111184        -0.007660         0.031376
 C         1.381875         0.007436        -0.032018
 C         2.321813        -1.220898         0.399815
 C         3.272469        -0.066866        -0.000505
 C         4.612315         0.543420        -0.240858
 C         4.320290         2.042975        -0.063589
 O         3.110046         2.108703         0.902421
 C         2.528161         0.821248         0.865178
 O         2.318357         0.250492        -1.222306
 H        -0.414546        -0.277052         1.092989
 H        -0.505199         1.016125        -0.262801
 H        -0.579728        -0.730268        -0.668773
 H         2.313625        -1.650233         1.405686
 H         2.347213        -2.009921        -0.418856
 H         5.363366         0.203183         0.357120
 H         4.916189         0.425123        -1.298251
 H         4.909326         2.830179         0.417120
 H         3.997564         2.616665        -0.918675
 H         2.419651         0.445616         1.935997
