19
Iteration:  3679
 C         0.000973         0.008744        -0.090526
 C         1.430116         0.037892         0.192069
 C         2.372860        -1.339932         0.301660
 C         3.221772        -0.077533        -0.004296
 C         4.662465         0.463451        -0.267710
 C         4.352404         2.021228        -0.060044
 O         3.006295         2.145091         0.631256
 C         2.567665         0.820651         1.062568
 O         2.142831         0.388430        -1.023028
 H        -0.710252         0.101751         0.756038
 H        -0.189413         0.883645        -0.681211
 H        -0.299316        -0.838301        -0.668599
 H         2.634650        -1.795314         1.237608
 H         2.120753        -1.980748        -0.459662
 H         5.396420        -0.034528         0.404285
 H         5.093083         0.256734        -1.320814
 H         5.050673         2.735588         0.404069
 H         4.125170         2.401670        -1.112222
 H         2.612267         0.578074         2.145913
