19
Iteration:  4588
 C         0.030788         0.005442        -0.132424
 C         1.511930         0.008094         0.134300
 C         2.391686        -1.206683         0.517671
 C         3.225834        -0.032269        -0.083664
 C         4.579689         0.461419        -0.368636
 C         4.320459         2.013212         0.187917
 O         2.956274         2.208199         0.588557
 C         2.564183         0.799683         0.904606
 O         2.161408         0.238617        -1.090116
 H        -0.579739         0.116000         0.792147
 H        -0.359818         0.735982        -0.812676
 H        -0.274080        -0.977046        -0.525854
 H         2.484100        -1.275557         1.608126
 H         2.283285        -2.185379        -0.015072
 H         5.374487        -0.133453         0.193218
 H         4.609018         0.611550        -1.461562
 H         5.040724         2.159808         1.032286
 H         4.664593         2.649484        -0.590903
 H         2.896179         0.620344         1.918000
