19
Iteration:  1326charge 0 multiplicity 1
 C        -0.067833         0.106871         0.031861
 C         1.452671        -0.018064         0.024644
 C         2.442071        -1.302889         0.305392
 C         3.218636         0.001070         0.011561
 C         4.629297         0.471563        -0.256276
 C         4.180279         2.020322        -0.128273
 O         3.109601         2.059818         0.857829
 C         2.438257         0.822247         0.989611
 O         2.351650         0.324601        -1.156819
 H        -0.589640        -0.068377         1.001714
 H        -0.439097         1.114027        -0.313442
 H        -0.527135        -0.534183        -0.736773
 H         2.389087        -1.961760         1.296799
 H         2.321982        -1.901011        -0.609916
 H         5.327187         0.147528         0.570544
 H         4.836813         0.242904        -1.375655
 H         4.974183         2.574505         0.302420
 H         3.855574         2.433098        -1.132374
 H         2.482741         0.643165         2.078707
