19
Iteration:  4401charge 0 multiplicity 1
 C        -0.139275         0.066074        -0.207250
 C         1.406649        -0.049847         0.039049
 C         2.391196        -1.213578         0.449399
 C         3.264727        -0.003984        -0.036902
 C         4.571868         0.578016        -0.261321
 C         4.199812         2.041959        -0.161105
 O         3.199069         2.170393         0.962758
 C         2.628219         0.839369         1.018596
 O         2.206138         0.101681        -1.123626
 H        -0.646006        -0.024196         0.822895
 H        -0.140900         1.030925        -0.758832
 H        -0.305203        -0.833803        -0.905404
 H         2.464306        -1.701959         1.467191
 H         2.234465        -1.896100        -0.335945
 H         5.185622         0.374647         0.659524
 H         5.096163         0.204877        -1.241822
 H         4.958213         2.782267        -0.083938
 H         3.684413         2.282141        -1.102864
 H         2.634882         0.384868         2.013832
