19
Iteration:  2966
 C        -0.080737         0.127507         0.149786
 C         1.509945        -0.039968        -0.021631
 C         2.321995        -1.341855         0.354404
 C         3.256789        -0.141464        -0.114851
 C         4.595101         0.556133        -0.298093
 C         4.364797         2.064855         0.094151
 O         2.949270         2.141226         0.685073
 C         2.486245         0.857302         0.932409
 O         2.301958         0.261021        -1.176981
 H        -0.284688        -0.133785         1.210237
 H        -0.310034         1.222514         0.098955
 H        -0.677389        -0.450476        -0.539044
 H         2.291399        -1.669253         1.359483
 H         2.487285        -2.200032        -0.349397
 H         5.405218        -0.142345         0.220240
 H         4.980341         0.495757        -1.380126
 H         5.205058         2.301518         0.826334
 H         4.259595         2.667523        -0.801820
 H         2.693061         0.537235         2.097452
