19
Iteration:   722charge 0 multiplicity 1
 C        -0.011585         0.275502        -0.033755
 C         1.447645         0.015360         0.153592
 C         2.347180        -1.304710         0.323909
 C         3.306637        -0.035499        -0.102816
 C         4.647705         0.540929        -0.298627
 C         4.309201         2.056373         0.133985
 O         2.869077         1.998364         0.644656
 C         2.547368         0.681667         1.007143
 O         2.258385         0.249054        -1.138254
 H        -0.616777        -0.265785         0.716492
 H        -0.279404         1.341263         0.022628
 H        -0.075084        -0.273158        -0.971367
 H         2.511747        -1.685254         1.399603
 H         2.155342        -2.074466        -0.465329
 H         5.532160         0.082379         0.243230
 H         4.914617         0.627136        -1.309036
 H         5.042309         2.462713         0.858849
 H         4.343835         2.665000        -0.777323
 H         2.817251         0.453486         2.011627
