19
Iteration:  3497charge 0 multiplicity 1
 C        -0.124942         0.009756         0.052441
 C         1.394552        -0.118349         0.111206
 C         2.365840        -1.266960         0.379848
 C         3.284597        -0.062668        -0.103310
 C         4.688835         0.468305        -0.275552
 C         4.382998         2.020330         0.082692
 O         3.045685         2.229799         0.696571
 C         2.504931         0.903409         0.853045
 O         2.168706         0.292112        -1.182149
 H        -0.662665         0.019631         1.075890
 H        -0.247952         0.967044        -0.430688
 H        -0.610641        -0.741946        -0.564979
 H         2.578012        -1.597875         1.446695
 H         2.381951        -2.116460        -0.240859
 H         5.275933         0.071040         0.688388
 H         5.171903         0.252999        -1.239652
 H         5.132919         2.310776         0.765763
 H         4.466265         2.603782        -0.841129
 H         2.640324         0.493633         1.932425
