19
Iteration:  3509
 C        -0.161803        -0.044053         0.002788
 C         1.397753        -0.016908         0.020202
 C         2.375394        -1.184391         0.444981
 C         3.277092        -0.065667        -0.092113
 C         4.612665         0.560648        -0.239755
 C         4.369963         1.976526         0.057425
 O         3.112984         2.181850         0.715690
 C         2.616203         0.779220         0.823499
 O         2.154460         0.281325        -1.165732
 H        -0.413843        -0.131391         1.151117
 H        -0.650011         0.857129        -0.315639
 H        -0.608423        -0.908261        -0.501276
 H         2.279905        -1.396343         1.536387
 H         2.162931        -1.992086        -0.180056
 H         5.403360        -0.027289         0.555122
 H         5.166517         0.410451        -1.166548
 H         5.097801         2.379788         0.750975
 H         4.402390         2.627401        -0.800112
 H         2.557007         0.761277         1.990912
