19
Iteration:   523
 C         0.044374         0.287125        -0.042986
 C         1.530101        -0.045240         0.054774
 C         2.442353        -1.363442         0.221425
 C         3.288439        -0.121989         0.027086
 C         4.651734         0.544147        -0.289530
 C         4.263140         1.972666         0.045140
 O         2.873223         2.088200         0.728991
 C         2.533286         0.751707         1.068354
 O         2.175999         0.370887        -1.124152
 H        -0.399651        -0.446837         0.637967
 H        -0.333572         1.299010         0.059964
 H        -0.359498        -0.088147        -1.007019
 H         2.684794        -1.574513         1.264074
 H         2.298640        -2.350346        -0.287449
 H         5.408219         0.039589         0.266410
 H         4.626044         0.229837        -1.333094
 H         5.031902         2.461661         0.587958
 H         4.088384         2.441919        -0.947863
 H         2.644698         0.399843         2.107600
