19
Iteration:  1943charge 0 multiplicity 1
 C        -0.077844         0.119453         0.181650
 C         1.474634         0.060639         0.091031
 C         2.474923        -1.274990         0.229866
 C         3.274403        -0.089341        -0.054510
 C         4.601269         0.485290        -0.336916
 C         4.337650         2.014670         0.095614
 O         2.885357         2.056800         0.567667
 C         2.466250         0.774671         0.948753
 O         2.311744         0.356476        -1.078775
 H        -0.278713        -0.079483         1.203922
 H        -0.391522         1.084158        -0.147069
 H        -0.569377        -0.756117        -0.345080
 H         2.497845        -1.754769         1.170058
 H         2.293812        -1.898963        -0.674775
 H         5.408159        -0.040641         0.230529
 H         4.890753         0.368001        -1.389675
 H         4.931470         2.257399         1.024679
 H         4.437236         2.661575        -0.726614
 H         2.531713         0.518505         1.994334
