19
Iteration:  4236
 C         0.038431         0.028679        -0.102510
 C         1.479759         0.020130         0.199613
 C         2.441036        -1.287771         0.321596
 C         3.245820        -0.109085        -0.030769
 C         4.582808         0.383814        -0.390814
 C         4.289438         1.944054        -0.004034
 O         2.930314         2.199476         0.645689
 C         2.468032         0.839296         1.063581
 O         2.260383         0.421844        -0.971368
 H        -0.760316        -0.020705         0.659843
 H        -0.255189         0.958621        -0.791318
 H        -0.142246        -0.926257        -0.752058
 H         2.570075        -1.590771         1.355467
 H         2.459459        -2.124007        -0.457890
 H         5.374674        -0.037367         0.163868
 H         4.638277         0.197223        -1.529785
 H         5.101630         2.463958         0.572929
 H         4.425987         2.546208        -0.887077
 H         2.511708         0.822937         2.240553
