19
Iteration:  2892charge 0 multiplicity 1
 C        -0.060131         0.141795         0.057332
 C         1.483995         0.009670         0.088271
 C         2.369594        -1.255476         0.277322
 C         3.266709        -0.122762         0.015601
 C         4.676386         0.563599        -0.354378
 C         4.300245         2.010535        -0.013998
 O         2.908283         2.091723         0.735293
 C         2.521592         0.737273         0.994094
 O         2.331373         0.305787        -1.112165
 H        -0.449327        -0.326942         1.045996
 H        -0.264421         1.221621        -0.089355
 H        -0.483608        -0.396555        -0.764632
 H         2.360584        -1.672145         1.294706
 H         2.206704        -2.065540        -0.493492
 H         5.396784         0.007743         0.143880
 H         4.795605         0.400066        -1.390466
 H         5.041051         2.573462         0.565795
 H         4.036786         2.369434        -1.036180
 H         2.351065         0.567388         2.020530
