19
Iteration:  3527
 C        -0.000453        -0.079947         0.050903
 C         1.401870         0.116234         0.130745
 C         2.239039        -1.208949         0.374909
 C         3.221699        -0.039428        -0.074925
 C         4.634103         0.473503        -0.305343
 C         4.399872         2.040974         0.030397
 O         3.077219         2.121424         0.728768
 C         2.477545         0.911078         0.954425
 O         2.272536         0.239979        -1.218576
 H        -0.509695        -0.303013         1.001347
 H        -0.619291         0.721234        -0.384498
 H        -0.176700        -0.887001        -0.662937
 H         2.512967        -1.575219         1.455490
 H         2.141887        -2.105126        -0.283117
 H         5.215508         0.061021         0.379893
 H         4.978705         0.145205        -1.310418
 H         5.125830         2.483531         0.733864
 H         4.210939         2.577842        -0.953566
 H         2.564513         0.598043         1.959130
