19
Iteration:  4961charge 0 multiplicity 1
 C        -0.051095         0.192272         0.074469
 C         1.447931        -0.070283         0.163306
 C         2.315123        -1.333938         0.278796
 C         3.339007        -0.202001        -0.049671
 C         4.687774         0.611800        -0.040520
 C         4.171113         2.104455        -0.134521
 O         2.972919         2.146724         0.689439
 C         2.560456         0.835374         0.874348
 O         2.313294         0.163752        -1.169947
 H        -0.487447         0.197214         1.040641
 H        -0.092868         1.244835        -0.252897
 H        -0.657715        -0.356268        -0.588060
 H         2.286679        -2.061643         1.103307
 H         2.193181        -1.950311        -0.572282
 H         5.069302         0.296450         0.984608
 H         5.469823         0.326835        -0.860194
 H         4.913857         2.887468         0.184562
 H         3.989939         2.365047        -1.195458
 H         2.617050         0.478331         1.882612
