19
Iteration:  1598charge 0 multiplicity 1
 C         0.098133         0.139175         0.019301
 C         1.535245         0.040158         0.151954
 C         2.219728        -1.352233         0.315193
 C         3.295386        -0.165304        -0.085669
 C         4.608186         0.533122        -0.309832
 C         4.157613         2.090659        -0.079959
 O         2.933454         2.114378         0.782309
 C         2.600663         0.720701         0.989592
 O         2.319692         0.313376        -1.113300
 H        -0.408884        -0.129578         0.927494
 H        -0.073816         1.215618        -0.063798
 H        -0.318720        -0.376140        -0.885431
 H         2.372489        -1.750471         1.266082
 H         1.849561        -2.018097        -0.504995
 H         5.407771         0.103476         0.224994
 H         4.926471         0.375318        -1.295073
 H         4.872872         2.525628         0.664417
 H         3.939992         2.726589        -0.999551
 H         2.726940         0.459799         1.993007
