19
Iteration:  2250
 C         0.029585         0.200437         0.185116
 C         1.508025        -0.033430         0.059264
 C         2.389483        -1.345924         0.265375
 C         3.292266        -0.126814        -0.036663
 C         4.650849         0.509975        -0.273075
 C         4.242947         1.991428         0.068174
 O         2.893833         2.124040         0.550475
 C         2.544610         0.787111         0.889736
 O         2.226887         0.324537        -1.065722
 H        -0.419404         0.158922         1.161716
 H        -0.100599         1.146224        -0.349680
 H        -0.563501        -0.601328        -0.271705
 H         2.107632        -1.816834         1.279383
 H         2.485293        -2.112352        -0.468806
 H         5.461358         0.126524         0.349327
 H         5.041086         0.453384        -1.349742
 H         4.841305         2.474721         0.895160
 H         4.252930         2.708971        -0.759681
 H         2.588864         0.543388         1.890973
