19
Iteration:  3518charge 0 multiplicity 1
 C        -0.125278        -0.069450         0.017764
 C         1.420743         0.103216        -0.001310
 C         2.313672        -1.178901         0.424702
 C         3.206582        -0.074011        -0.109548
 C         4.626353         0.517910        -0.244671
 C         4.398410         2.059043         0.061125
 O         3.121968         2.082354         0.695929
 C         2.556845         0.867386         0.946429
 O         2.193008         0.239739        -1.180639
 H        -0.345639        -0.286111         1.119676
 H        -0.689571         0.778622        -0.334358
 H        -0.348289        -0.982587        -0.519774
 H         2.420160        -1.383564         1.556340
 H         2.203438        -2.071349        -0.154111
 H         5.315669         0.051290         0.496340
 H         5.035798         0.493235        -1.256007
 H         5.178350         2.491078         0.637899
 H         4.336192         2.646845        -0.887308
 H         2.608764         0.463291         1.989422
