19
Iteration:   579charge 0 multiplicity 1
 C         0.063233         0.235713        -0.030283
 C         1.483987        -0.042729         0.054694
 C         2.257916        -1.263363         0.305196
 C         3.295213        -0.122163        -0.073548
 C         4.652079         0.564740        -0.266363
 C         4.096406         2.093134        -0.005486
 O         2.979386         2.006521         0.854924
 C         2.622964         0.693571         0.957503
 O         2.299781         0.286698        -1.155210
 H        -0.338336         0.286480         0.996748
 H        -0.160534         1.262763        -0.395141
 H        -0.496316        -0.501111        -0.621860
 H         2.121118        -1.690237         1.348826
 H         2.505833        -1.829304        -0.569747
 H         5.358418         0.096754         0.506801
 H         4.998388         0.233035        -1.214462
 H         4.843575         2.720677         0.429891
 H         3.811376         2.527194        -0.981979
 H         2.752369         0.342751         2.042126
