19
Iteration:  2532charge 0 multiplicity 1
 C        -0.012760         0.062391         0.052794
 C         1.437848         0.009632         0.097102
 C         2.361343        -1.287229         0.335737
 C         3.251385        -0.097759        -0.066420
 C         4.643616         0.542010        -0.245302
 C         4.278520         2.035657        -0.022973
 O         3.048271         2.128542         0.758844
 C         2.524250         0.796940         0.968224
 O         2.219324         0.262484        -1.231673
 H        -0.282115        -0.538702         0.907603
 H        -0.330310         1.128248         0.165973
 H        -0.484092        -0.397959        -0.814537
 H         2.293533        -1.387234         1.426460
 H         2.046324        -2.175381        -0.089085
 H         5.442128         0.189584         0.443949
 H         4.931014         0.328111        -1.322037
 H         5.177716         2.593785         0.461924
 H         3.989603         2.671605        -1.012910
 H         2.647964         0.643375         1.998216
