19
Iteration:  2036
 C        -0.016910         0.154992        -0.007135
 C         1.521300         0.058136         0.125275
 C         2.399044        -1.316276         0.245750
 C         3.305473        -0.125206         0.076740
 C         4.593395         0.534362        -0.319491
 C         4.084599         2.012534        -0.230954
 O         3.030954         2.007985         0.794380
 C         2.490896         0.753039         1.104445
 O         2.348945         0.399433        -1.090321
 H        -0.530218        -0.370765         0.865566
 H        -0.279584         1.256443        -0.098560
 H        -0.259385        -0.477073        -0.820676
 H         2.241747        -1.734568         1.339453
 H         2.311204        -2.032511        -0.535229
 H         5.459045         0.422801         0.375123
 H         4.852817         0.228447        -1.347484
 H         4.903365         2.511773         0.182910
 H         3.711316         2.473455        -1.189774
 H         2.506741         0.398807         2.070356
