19
Iteration:  4398charge 0 multiplicity 1
 C        -0.153502         0.054268        -0.207903
 C         1.419087        -0.055567         0.048773
 C         2.413894        -1.203994         0.470993
 C         3.251330         0.012809        -0.049494
 C         4.563906         0.550506        -0.255703
 C         4.215810         2.049629        -0.172109
 O         3.203906         2.155790         0.948133
 C         2.607454         0.829283         1.048529
 O         2.205260         0.116153        -1.151232
 H        -0.530949         0.015726         0.757210
 H        -0.171865         1.012701        -0.728789
 H        -0.354437        -0.753273        -0.863962
 H         2.429991        -1.704528         1.455616
 H         2.266890        -2.016520        -0.312389
 H         5.221320         0.363712         0.677410
 H         5.095398         0.261644        -1.284604
 H         4.954769         2.869207         0.037512
 H         3.708445         2.351978        -1.106279
 H         2.545707         0.456227         2.065386
