19
Iteration:   642charge 0 multiplicity 1
 C         0.011514         0.008509         0.000546
 C         1.432671         0.063686         0.145906
 C         2.253587        -1.301956         0.191710
 C         3.257189        -0.078909        -0.067141
 C         4.674776         0.469687        -0.148529
 C         4.354645         2.018200        -0.085747
 O         2.971591         2.074274         0.751681
 C         2.539025         0.750252         1.001216
 O         2.276357         0.458993        -1.113091
 H        -0.377006        -0.197240         1.000541
 H        -0.268836         1.012728        -0.373436
 H        -0.345277        -0.735565        -0.719711
 H         2.248973        -1.926573         1.129359
 H         2.074679        -2.025169        -0.626220
 H         5.224952         0.136972         0.704513
 H         5.148456         0.338340        -1.135277
 H         5.024187         2.760210         0.422403
 H         4.031657         2.328011        -1.122536
 H         2.514658         0.680876         2.084920
