19
Iteration:  3002charge 0 multiplicity 1
 C        -0.065663         0.004119         0.026633
 C         1.430872         0.112521         0.112360
 C         2.344756        -1.303633         0.306957
 C         3.236528        -0.106651        -0.099399
 C         4.636025         0.496624        -0.301261
 C         4.324303         1.998138         0.027745
 O         3.008110         2.125170         0.656623
 C         2.601531         0.822685         1.011258
 O         2.236367         0.355082        -1.096784
 H        -0.514962        -0.104545         1.067328
 H        -0.558367         0.792888        -0.495303
 H        -0.344783        -0.901572        -0.475948
 H         2.405969        -1.676710         1.299386
 H         2.319210        -2.069845        -0.441580
 H         5.173370         0.006847         0.421905
 H         4.979798         0.389050        -1.264360
 H         5.073377         2.521439         0.665903
 H         4.206744         2.709421        -0.860179
 H         2.770590         0.423032         2.145348
