19
Iteration:  4188charge 0 multiplicity 1
 C        -0.090150         0.068451         0.070543
 C         1.441319         0.017816         0.041610
 C         2.288010        -1.302789         0.328490
 C         3.286302        -0.120200        -0.041125
 C         4.701919         0.560026        -0.177732
 C         4.184353         2.056661        -0.121643
 O         3.080752         2.132009         0.845558
 C         2.526030         0.799053         0.877152
 O         2.338461         0.258286        -1.216263
 H        -0.411592        -0.006168         1.131447
 H        -0.516156         0.985812        -0.285507
 H        -0.574753        -0.733787        -0.447396
 H         2.300934        -1.773213         1.355083
 H         1.999216        -2.089125        -0.389374
 H         5.191829         0.315120         0.900754
 H         5.325316         0.293807        -1.060395
 H         4.970805         2.718081         0.224751
 H         3.989055         2.544806        -1.123601
 H         2.495139         0.604658         1.929232
