19
Iteration:  2090
 C        -0.006094         0.266217         0.087708
 C         1.481045        -0.045455         0.080418
 C         2.477831        -1.268962         0.303781
 C         3.272995        -0.109719        -0.143486
 C         4.613718         0.588907        -0.168238
 C         4.153110         2.070479        -0.095623
 O         2.998934         1.995268         0.774869
 C         2.544280         0.736752         0.933536
 O         2.182399         0.231712        -1.139258
 H        -0.351814         0.312650         1.177726
 H        -0.024378         1.294368        -0.433091
 H        -0.573704        -0.397970        -0.544293
 H         2.784540        -1.728361         1.311920
 H         2.364846        -2.007603        -0.445643
 H         5.203710         0.178715         0.661850
 H         5.356047         0.442834        -0.968934
 H         4.846713         2.657318         0.395504
 H         3.964234         2.486167        -1.167393
 H         2.603071         0.317155         1.899209
