19
Iteration:  1542charge 0 multiplicity 1
 C         0.019294         0.317059         0.008290
 C         1.518924        -0.054633         0.138253
 C         2.496392        -1.358249         0.240360
 C         3.225920        -0.050156        -0.141781
 C         4.559940         0.562551        -0.202328
 C         4.137970         1.977297        -0.127576
 O         3.008752         2.080916         0.817754
 C         2.537882         0.713447         1.045595
 O         2.227134         0.265190        -1.121825
 H        -0.302211         0.235110         1.042685
 H         0.127442         1.290072        -0.485962
 H        -0.360320        -0.545058        -0.568981
 H         2.502295        -1.865726         1.221689
 H         2.426980        -2.030385        -0.541923
 H         4.939813         0.129010         0.720954
 H         5.209114         0.398945        -1.102359
 H         4.826771         2.820846         0.222442
 H         3.860298         2.415576        -1.179498
 H         2.560479         0.375808         2.044622
