19
Iteration:   567charge 0 multiplicity 1
 C         0.043493         0.278523        -0.049037
 C         1.524123         0.003810         0.028545
 C         2.203708        -1.390902         0.323268
 C         3.328718        -0.126767        -0.019878
 C         4.653673         0.604722        -0.309043
 C         4.225858         2.195118        -0.030022
 O         2.922387         2.034655         0.854061
 C         2.629844         0.643955         1.019915
 O         2.278610         0.215788        -1.137420
 H        -0.450450         0.127688         0.920313
 H         0.041866         1.334519        -0.381384
 H        -0.491040        -0.296057        -0.826122
 H         2.184631        -1.951882         1.311403
 H         1.947867        -2.186076        -0.433258
 H         5.529976         0.246557         0.285203
 H         4.867362         0.632318        -1.381139
 H         4.885217         2.897067         0.482492
 H         3.845524         2.587568        -1.006504
 H         2.635860         0.145783         2.038941
