19
Iteration:  4676
 C        -0.118849         0.169712        -0.025961
 C         1.454491        -0.029815         0.187082
 C         2.435274        -1.376689         0.296840
 C         3.357792        -0.126034         0.023172
 C         4.666931         0.560084        -0.066836
 C         4.209222         1.974757        -0.193858
 O         2.918502         2.141831         0.599987
 C         2.583566         0.818323         0.988909
 O         2.282282         0.321341        -1.098573
 H        -0.654384        -0.213011         0.832776
 H        -0.235520         1.243150        -0.085895
 H        -0.431700        -0.221686        -0.968413
 H         2.397827        -1.901182         1.230643
 H         2.194049        -2.164218        -0.511638
 H         5.279087         0.118047         0.802338
 H         5.211835         0.188300        -0.966777
 H         4.682429         2.805732         0.349446
 H         4.133373         2.206825        -1.246964
 H         2.673330         0.697942         2.064246
