19
Iteration:  3799
 C         0.128959         0.226638         0.018461
 C         1.499459        -0.013473         0.135735
 C         2.304316        -1.347037         0.308441
 C         3.296959        -0.105876        -0.028286
 C         4.551874         0.516544        -0.382225
 C         4.251654         2.085124         0.116459
 O         2.805399         2.112712         0.569984
 C         2.542750         0.776139         1.052120
 O         2.350485         0.188603        -1.096748
 H        -0.390760         0.151906         1.005625
 H         0.067742         1.260214        -0.170750
 H        -0.356419        -0.332218        -0.714390
 H         2.299388        -1.779047         1.319395
 H         2.263803        -1.997615        -0.481043
 H         5.479284         0.119576         0.128231
 H         4.731115         0.474740        -1.577612
 H         4.950623         2.272629         0.851209
 H         4.420490         2.800194        -0.712331
 H         2.646209         0.598479         2.163351
