19
Iteration:   421
 C        -0.016502         0.177489        -0.118911
 C         1.448535        -0.008739         0.211522
 C         2.313024        -1.311573         0.203066
 C         3.283034        -0.152506        -0.095771
 C         4.685630         0.518520        -0.253600
 C         4.171219         2.111418        -0.015448
 O         2.980419         2.078583         0.818264
 C         2.596481         0.721450         0.980600
 O         2.259586         0.314664        -1.034311
 H        -0.616865         0.351703         0.755812
 H        -0.155879         1.142925        -0.608860
 H        -0.392105        -0.698789        -0.617368
 H         2.440220        -1.909835         1.131985
 H         2.152329        -1.979155        -0.626801
 H         5.487198         0.086010         0.269518
 H         5.113227         0.461104        -1.285386
 H         5.051288         2.633286         0.482983
 H         4.091382         2.626404        -0.970204
 H         2.732050         0.373049         2.032889
