19
Iteration:   800charge 0 multiplicity 1
 C        -0.033419         0.076878         0.005600
 C         1.452403         0.081129         0.005034
 C         2.256448        -1.339704         0.317924
 C         3.264930        -0.036635        -0.175337
 C         4.591202         0.552751        -0.142949
 C         4.325164         2.053773        -0.010661
 O         3.055389         2.106194         0.812794
 C         2.589338         0.702739         0.940496
 O         2.212965         0.368173        -1.146267
 H        -0.339178        -0.078586         1.041581
 H        -0.531529         0.817996        -0.626965
 H        -0.277029        -0.875149        -0.518348
 H         2.268726        -1.723321         1.389058
 H         2.439149        -2.285701        -0.370393
 H         4.990408         0.119120         0.780397
 H         5.157646         0.034560        -0.923741
 H         5.159057         2.591051         0.451960
 H         4.105795         2.341079        -1.040365
 H         2.901117         0.442479         1.903960
