19
Iteration:  2472charge 0 multiplicity 1
 C         0.003555         0.066242        -0.005574
 C         1.441483        -0.016343         0.176037
 C         2.463281        -1.253329         0.301253
 C         3.242591        -0.114690        -0.059649
 C         4.643827         0.525337        -0.329789
 C         4.364961         2.051169         0.094233
 O         2.949011         2.100902         0.572275
 C         2.573187         0.793561         0.908189
 O         2.097413         0.336398        -1.014711
 H        -0.399807         0.183703         1.034561
 H        -0.310127         0.982898        -0.498965
 H        -0.404251        -0.775292        -0.529556
 H         2.432118        -1.642089         1.336702
 H         2.148028        -2.014920        -0.550505
 H         5.309347        -0.037159         0.366019
 H         4.985156         0.150469        -1.289409
 H         5.038265         2.321257         0.868018
 H         4.373507         2.772604        -0.700725
 H         2.806899         0.494964         2.057618
