19
Iteration:   371
 C        -0.012063         0.356077         0.000636
 C         1.468381        -0.007405         0.057364
 C         2.439512        -1.354251         0.300965
 C         3.317992        -0.085535        -0.037921
 C         4.655059         0.487716        -0.382386
 C         4.206552         2.082920         0.033180
 O         2.844400         2.043168         0.862323
 C         2.495185         0.706697         1.002681
 O         2.366730         0.236810        -1.164170
 H        -0.542365        -0.001461         0.930933
 H        -0.242793         1.421622         0.116200
 H        -0.490357        -0.041912        -0.954148
 H         2.520831        -1.745767         1.305217
 H         2.316375        -2.161269        -0.511256
 H         5.539940         0.091906         0.224506
 H         5.041455         0.219721        -1.390049
 H         4.899168         2.837693         0.421089
 H         3.945939         2.361880        -1.024651
 H         2.310116         0.351255         2.057225
