19
Iteration:  4304
 C        -0.027595         0.224516         0.191843
 C         1.474651        -0.059128         0.061717
 C         2.521267        -1.197765         0.340929
 C         3.293186        -0.071105        -0.098599
 C         4.597770         0.511763        -0.153581
 C         4.241767         2.026439         0.154922
 O         2.903527         2.124697         0.539656
 C         2.530849         0.801765         0.826754
 O         2.200168         0.128338        -1.262579
 H        -0.426805        -0.262794         1.150772
 H        -0.064741         1.333931         0.256814
 H        -0.463793        -0.176186        -0.774141
 H         2.437181        -1.453752         1.444322
 H         2.457781        -2.075590        -0.227570
 H         5.050721         0.044057         0.660935
 H         5.154941         0.364027        -1.032791
 H         4.983036         2.257531         0.953794
 H         4.616353         2.716513        -0.622722
 H         2.528800         0.414646         1.885291
