19
Iteration:   776
 C        -0.084757         0.051272         0.123604
 C         1.428579        -0.015081         0.023924
 C         2.372071        -1.217072         0.196877
 C         3.324872        -0.046263        -0.049749
 C         4.667319         0.492710        -0.160146
 C         4.295412         1.959355         0.081661
 O         3.012948         2.059196         0.730213
 C         2.469237         0.873504         0.856021
 O         2.245771         0.330451        -1.160629
 H        -0.347981         0.064731         1.175052
 H        -0.257022         0.971622        -0.416891
 H        -0.698238        -0.654475        -0.393015
 H         2.450323        -1.857979         1.097595
 H         2.177723        -1.883925        -0.685296
 H         5.321366         0.090942         0.658326
 H         5.188424         0.406707        -1.032473
 H         5.119313         2.413492         0.679682
 H         4.228642         2.351829        -0.942608
 H         2.526764         0.736066         1.911635
