19
Iteration:  2736charge 0 multiplicity 1
 C        -0.019598         0.184031         0.086930
 C         1.486415        -0.053159         0.131117
 C         2.444402        -1.340939         0.315423
 C         3.256951        -0.033439        -0.148542
 C         4.637222         0.503021        -0.172346
 C         4.331822         2.036699         0.094485
 O         2.906540         2.143692         0.636270
 C         2.534153         0.782165         0.872189
 O         2.167295         0.202490        -1.178580
 H        -0.485883        -0.258653         0.938744
 H        -0.273821         1.262695         0.251633
 H        -0.466402        -0.181223        -0.926780
 H         2.807358        -1.595032         1.360970
 H         2.398903        -2.053577        -0.436601
 H         5.335615         0.204896         0.583727
 H         5.011835         0.468089        -1.230552
 H         4.986955         2.560779         0.966203
 H         4.274601         2.644826        -0.809069
 H         2.687956         0.515022         1.854079
