19
Iteration:  1721
 C         0.012895         0.254375         0.025358
 C         1.517257         0.000746         0.178212
 C         2.485330        -1.404251         0.197052
 C         3.286650        -0.049793         0.004082
 C         4.564827         0.500403        -0.288684
 C         4.214731         2.077903        -0.084648
 O         2.999149         2.066934         0.764311
 C         2.515164         0.707832         1.012488
 O         2.169792         0.259697        -1.075211
 H        -0.783698         0.462407         0.819942
 H         0.001108         1.259395        -0.535848
 H        -0.300824        -0.422933        -0.783441
 H         2.543739        -1.982709         1.177271
 H         2.505318        -1.997070        -0.757355
 H         5.411220         0.265967         0.374412
 H         4.794867         0.393716        -1.377347
 H         4.908764         2.736237         0.606869
 H         4.007242         2.553177        -1.116243
 H         2.567618         0.504685         2.084240
