19
Iteration:  3884charge 0 multiplicity 1
 C        -0.158853        -0.057467        -0.031476
 C         1.466062         0.034602         0.031452
 C         2.266741        -1.247842         0.226148
 C         3.254546        -0.055016         0.083863
 C         4.770871         0.510519        -0.123315
 C         4.274690         1.952639        -0.213692
 O         2.979069         2.050018         0.695377
 C         2.633619         0.802848         1.035162
 O         2.276093         0.506068        -1.049978
 H        -0.394188        -0.335431         1.065859
 H        -0.698183         0.840899        -0.351425
 H        -0.575715        -0.865543        -0.681359
 H         2.186423        -1.722217         1.339456
 H         2.470308        -1.967081        -0.508655
 H         5.456910         0.361425         0.711766
 H         5.226280         0.111250        -1.039493
 H         5.140900         2.608885         0.183124
 H         3.979436         2.381407        -1.166565
 H         2.557216         0.467902         2.059085
