19
Iteration:  3574charge 0 multiplicity 1
 C        -0.013632         0.208583        -0.021856
 C         1.458682        -0.048580         0.170824
 C         2.420653        -1.287127         0.351894
 C         3.317053        -0.112456         0.040635
 C         4.685359         0.547803        -0.205333
 C         4.276340         2.044898        -0.211371
 O         2.956194         1.976201         0.606498
 C         2.514243         0.729427         1.036583
 O         2.188201         0.388616        -1.066050
 H        -0.753701        -0.146879         0.797823
 H        -0.222216         1.258189        -0.185671
 H        -0.282072        -0.249591        -0.976498
 H         2.305200        -1.800458         1.395033
 H         2.270182        -2.038502        -0.416686
 H         5.493647         0.364242         0.618595
 H         5.138030         0.312853        -1.146137
 H         4.982141         2.547437         0.404127
 H         4.038439         2.493509        -1.163729
 H         2.338408         0.481528         2.124919
