19
Iteration:   449charge 0 multiplicity 1
 C        -0.033489         0.042901         0.030186
 C         1.447341         0.029160        -0.029299
 C         2.396199        -1.234249         0.190761
 C         3.158384        -0.025229        -0.053026
 C         4.640222         0.474036        -0.139006
 C         4.297154         2.021235        -0.063500
 O         3.058235         2.029362         0.838913
 C         2.472242         0.766023         0.985655
 O         2.259809         0.408881        -1.180234
 H        -0.293659        -0.036189         1.139361
 H        -0.508806         1.012642        -0.253833
 H        -0.524970        -0.887429        -0.336832
 H         2.400447        -1.567327         1.264693
 H         2.528069        -2.093478        -0.461394
 H         5.293227         0.050593         0.758141
 H         5.157144         0.224535        -1.069910
 H         5.152693         2.548427         0.410915
 H         4.222921         2.426946        -1.087494
 H         2.468779         0.481433         2.066581
