19
Iteration:  1872
 C        -0.057634         0.153356         0.073833
 C         1.437984         0.031293         0.005919
 C         2.454841        -1.367819         0.338551
 C         3.263602        -0.086877         0.014479
 C         4.571592         0.550538        -0.372266
 C         4.331872         2.072172         0.057065
 O         2.993080         2.105506         0.756489
 C         2.500547         0.715373         0.907235
 O         2.243372         0.277628        -1.135006
 H        -0.462505        -0.071434         1.086991
 H        -0.191031         1.233254        -0.188832
 H        -0.584318        -0.551791        -0.568989
 H         2.563086        -1.713638         1.383194
 H         2.491422        -2.130145        -0.473748
 H         5.526988         0.122759        -0.031146
 H         4.542793         0.432500        -1.487864
 H         5.124067         2.256471         0.866714
 H         4.233364         2.838731        -0.823131
 H         2.460572         0.687790         2.029563
