19
Iteration:  3675charge 0 multiplicity 1
 C         0.041482         0.042512        -0.097352
 C         1.448952         0.053010         0.218968
 C         2.384590        -1.295320         0.310678
 C         3.219252        -0.091014        -0.044237
 C         4.627368         0.484580        -0.266842
 C         4.275049         2.009875        -0.066218
 O         3.027492         2.124516         0.629250
 C         2.561054         0.833324         1.072952
 O         2.153047         0.353897        -1.007956
 H        -0.588019         0.087521         0.753921
 H        -0.221615         0.929971        -0.771310
 H        -0.309901        -0.855013        -0.696540
 H         2.564063        -1.922258         1.220315
 H         2.200562        -1.973165        -0.638795
 H         5.394755        -0.113064         0.420227
 H         5.139460         0.271168        -1.252349
 H         4.998669         2.664965         0.413241
 H         4.156576         2.314663        -1.060386
 H         2.602719         0.557546         2.178485
