19
Iteration:  1972charge 0 multiplicity 1
 C        -0.024628         0.004771         0.125463
 C         1.457918        -0.013074         0.034400
 C         2.341793        -1.299523         0.272249
 C         3.231329        -0.088026        -0.137984
 C         4.605588         0.506128        -0.273927
 C         4.303566         2.049038         0.055703
 O         3.048798         2.172660         0.710244
 C         2.529033         0.813071         0.951631
 O         2.220890         0.316754        -1.142650
 H        -0.282589        -0.505860         1.091980
 H        -0.380161         1.072786         0.076058
 H        -0.496642        -0.527270        -0.640466
 H         2.299305        -1.493483         1.364787
 H         2.188217        -2.103499        -0.373042
 H         5.333811        -0.027959         0.301652
 H         5.115116         0.429612        -1.225679
 H         5.045959         2.470898         0.827901
 H         4.340008         2.594858        -0.893845
 H         2.707406         0.647191         2.086395
