19
Iteration:  4276charge 0 multiplicity 1
 C        -0.068131         0.142113         0.063957
 C         1.463303        -0.029624         0.080371
 C         2.286506        -1.305735         0.391558
 C         3.305843        -0.107900        -0.081373
 C         4.691761         0.593736        -0.324212
 C         4.341265         2.132479         0.141955
 O         2.946697         2.178594         0.666349
 C         2.547973         0.808624         0.865713
 O         2.250030         0.086112        -1.173195
 H        -0.399024        -0.248239         0.996642
 H        -0.286118         1.173961        -0.036404
 H        -0.338289        -0.406230        -0.778602
 H         2.147424        -1.519979         1.441415
 H         1.959366        -2.274584        -0.076975
 H         5.488831        -0.034158         0.292382
 H         4.983014         0.690497        -1.407272
 H         5.082403         2.395077         0.920286
 H         4.403497         2.739199        -0.767289
 H         2.510840         0.494855         1.897203
