19
Iteration:  3267
 C        -0.067132         0.239792         0.057377
 C         1.459590        -0.049480         0.041859
 C         2.319663        -1.336851         0.320882
 C         3.333231        -0.157980         0.003542
 C         4.609666         0.591346        -0.325171
 C         4.171652         2.096121         0.022391
 O         2.917984         2.073732         0.650857
 C         2.616116         0.801076         1.008284
 O         2.385342         0.184178        -1.106306
 H        -0.422201         0.015768         1.029877
 H        -0.038373         1.374479        -0.013314
 H        -0.733813        -0.149497        -0.748482
 H         2.306285        -1.569770         1.353260
 H         2.377248        -2.156407        -0.440340
 H         5.408276         0.010285         0.188084
 H         4.823085         0.491504        -1.468591
 H         4.970761         2.372530         0.771435
 H         4.086821         2.692879        -0.973452
 H         2.580037         0.628350         2.072006
