19
Iteration:  1323
 C        -0.066451         0.077903         0.018865
 C         1.471565        -0.018349         0.036832
 C         2.419849        -1.276664         0.283301
 C         3.226031        -0.015463         0.046872
 C         4.607540         0.456233        -0.257190
 C         4.164019         2.007767        -0.126176
 O         3.123302         2.062218         0.846160
 C         2.438339         0.826159         1.011829
 O         2.356956         0.324533        -1.172207
 H        -0.538578        -0.056541         1.034304
 H        -0.354991         1.152352        -0.242056
 H        -0.557379        -0.521908        -0.780693
 H         2.386128        -1.865174         1.273611
 H         2.346368        -1.849431        -0.638686
 H         5.325990         0.223724         0.481914
 H         4.809548         0.311112        -1.343299
 H         5.014689         2.619119         0.255660
 H         3.866253         2.482672        -1.121961
 H         2.419031         0.675707         2.165975
