19
Iteration:  3585charge 0 multiplicity 1
 C         0.044938         0.251622        -0.011677
 C         1.493579        -0.008659         0.168484
 C         2.355227        -1.300529         0.331713
 C         3.347496        -0.155289        -0.040718
 C         4.669810         0.547474        -0.189140
 C         4.131940         1.951721        -0.145680
 O         2.922921         2.102092         0.670996
 C         2.552942         0.730768         0.928935
 O         2.228125         0.292257        -1.039523
 H        -0.683008        -0.108927         0.790189
 H         0.042506         1.339217        -0.020135
 H        -0.305407        -0.112478        -0.975876
 H         2.590089        -1.767648         1.363668
 H         2.234745        -2.012747        -0.489201
 H         5.295703         0.314159         0.744841
 H         5.251223         0.341206        -1.062292
 H         4.834446         2.671218         0.234086
 H         3.916632         2.296828        -1.150813
 H         2.773467         0.572508         1.995934
