19
Iteration:  2652
 C        -0.090401         0.088265        -0.072679
 C         1.451496        -0.066444         0.100068
 C         2.494320        -1.322784         0.384662
 C         3.240426        -0.049652        -0.119618
 C         4.533928         0.543581        -0.257170
 C         4.330256         2.065453        -0.023321
 O         3.086042         2.156565         0.833127
 C         2.572602         0.789020         0.929655
 O         2.168376         0.259971        -1.134123
 H        -0.672818         0.012825         0.817950
 H        -0.262566         1.061087        -0.587291
 H        -0.655779        -0.648207        -0.600713
 H         2.449371        -1.670223         1.469996
 H         2.351368        -2.186823        -0.277307
 H         5.186924         0.099709         0.492197
 H         5.128526         0.392699        -1.156069
 H         5.060834         2.709729         0.303094
 H         3.989092         2.573754        -1.005464
 H         2.488944         0.475204         2.097484
