19
Iteration:  1636
 C        -0.135271         0.040585         0.018894
 C         1.426670        -0.116760         0.121090
 C         2.468021        -1.306911         0.261088
 C         3.241884        -0.034271        -0.089339
 C         4.580760         0.474707        -0.183113
 C         4.312343         2.054324        -0.095257
 O         3.100196         2.090728         0.724408
 C         2.498328         0.824421         0.973617
 O         2.212331         0.450162        -1.097562
 H        -0.520542        -0.491438         0.948125
 H        -0.169863         1.156701         0.142513
 H        -0.692792        -0.437966        -0.797523
 H         2.637498        -1.903448         1.260947
 H         2.179680        -2.038216        -0.491106
 H         5.305750         0.171132         0.696618
 H         5.013722         0.127445        -1.245917
 H         5.154324         2.566766         0.347583
 H         4.411962         2.527926        -1.042224
 H         2.488736         0.493711         2.101123
