19
Iteration:  1985charge 0 multiplicity 1
 C        -0.099175         0.033231         0.058470
 C         1.429239         0.096041         0.121432
 C         2.378902        -1.260038         0.343338
 C         3.264601        -0.078087        -0.103351
 C         4.600365         0.562562        -0.281521
 C         4.354248         2.081149         0.022377
 O         3.067150         2.064722         0.746278
 C         2.577286         0.791884         0.872673
 O         2.173737         0.248989        -1.147698
 H        -0.385535        -0.574031         0.906853
 H        -0.598183         0.979906         0.160919
 H        -0.382370        -0.556010        -0.805864
 H         2.664868        -1.806634         1.185702
 H         2.200256        -1.858103        -0.516931
 H         5.111070         0.264673         0.625857
 H         5.055562         0.338990        -1.215273
 H         5.296474         2.544899         0.587155
 H         4.142593         2.657576        -0.831277
 H         2.497572         0.324057         1.956630
