19
Iteration:  4502
 C        -0.047685         0.146755         0.140571
 C         1.465453        -0.009733         0.057718
 C         2.352813        -1.305578         0.444234
 C         3.355158        -0.102477        -0.134967
 C         4.699960         0.503072        -0.145608
 C         4.301860         2.120249         0.126406
 O         2.865521         2.121560         0.553052
 C         2.556447         0.827329         0.784250
 O         2.207068         0.178227        -1.226047
 H        -0.447708        -0.294481         1.139315
 H        -0.106529         1.270669         0.206303
 H        -0.609825        -0.340065        -0.737542
 H         2.729160        -1.443178         1.441532
 H         2.111793        -2.214377        -0.170512
 H         5.178572         0.043261         0.734164
 H         5.432428         0.519379        -0.885544
 H         4.946928         2.607646         0.840932
 H         4.299515         2.519966        -0.872867
 H         2.611956         0.429093         1.818645
