19
Iteration:  3711charge 0 multiplicity 1
 C        -0.115455        -0.101558         0.046690
 C         1.383278         0.066795         0.007310
 C         2.344213        -1.203580         0.367422
 C         3.186915        -0.008188        -0.055054
 C         4.613029         0.455964        -0.304689
 C         4.350342         1.994955         0.078770
 O         3.103833         2.132795         0.663028
 C         2.529938         0.873399         0.969974
 O         2.306225         0.298498        -1.148896
 H        -0.289343        -0.299560         1.128407
 H        -0.584182         0.833704        -0.185067
 H        -0.494157        -0.914156        -0.546238
 H         2.507849        -1.541310         1.373390
 H         2.213244        -1.968705        -0.313957
 H         5.265247        -0.005240         0.505927
 H         5.004303         0.420106        -1.407464
 H         5.104989         2.445960         0.713854
 H         4.257942         2.568689        -0.882546
 H         2.471714         0.684371         2.090356
