19
Iteration:  1998
 C        -0.121251         0.046270         0.040897
 C         1.403465         0.035023         0.188118
 C         2.410480        -1.241013         0.311999
 C         3.247788        -0.035553        -0.115750
 C         4.685351         0.570325        -0.258625
 C         4.274104         2.013084        -0.101135
 O         3.084363         2.086014         0.836356
 C         2.583424         0.784863         0.969487
 O         2.151746         0.238797        -1.193654
 H        -0.733666        -0.515535         0.705199
 H        -0.566283         1.005738        -0.076914
 H        -0.179175        -0.264430        -1.068945
 H         2.599720        -1.680990         1.254954
 H         2.212662        -2.033126        -0.489289
 H         5.393999         0.164096         0.505847
 H         5.252307         0.366433        -1.197459
 H         4.970551         2.599071         0.624671
 H         4.185671         2.601922        -1.013058
 H         2.805790         0.536371         2.089693
