19
Iteration:  2191charge 0 multiplicity 1
 C         0.004887        -0.013598         0.043889
 C         1.440734        -0.041228         0.090087
 C         2.437488        -1.279322         0.343679
 C         3.202860        -0.074006        -0.068852
 C         4.593391         0.567820        -0.303620
 C         4.495902         2.043000         0.112604
 O         3.003086         2.128519         0.621943
 C         2.541882         0.896768         0.953186
 O         2.055117         0.235289        -1.149781
 H        -0.453921        -0.288843         0.989977
 H        -0.272905         1.063757         0.036887
 H        -0.373347        -0.351725        -0.954339
 H         2.385234        -1.438315         1.448428
 H         2.295246        -2.224931        -0.322469
 H         5.376918         0.103217         0.328028
 H         4.730755         0.488071        -1.364306
 H         5.120832         2.312566         0.923490
 H         4.605293         2.740151        -0.653503
 H         2.565673         0.633180         1.989162
