19
Iteration:    92charge 0 multiplicity 1
 C        -0.057445         0.107964        -0.103841
 C         1.484195         0.054472         0.197783
 C         2.285674        -1.304798         0.332371
 C         3.291282        -0.111485        -0.024138
 C         4.655864         0.600902        -0.369148
 C         4.268961         2.026487        -0.042688
 O         2.940088         2.059360         0.759726
 C         2.676824         0.767365         1.070442
 O         2.247218         0.294831        -1.081376
 H        -0.828308        -0.078176         0.699745
 H        -0.153704         1.168767        -0.470313
 H        -0.182629        -0.537891        -1.034076
 H         2.402588        -1.794796         1.340170
 H         2.023313        -2.029948        -0.481126
 H         5.449772         0.049777         0.266512
 H         4.851386         0.351445        -1.418414
 H         5.005013         2.678012         0.457423
 H         4.082102         2.352305        -1.027247
 H         2.613009         0.536115         2.128844
