19
Iteration:  4105charge 0 multiplicity 1
 C         0.079804         0.172331        -0.118187
 C         1.494843         0.015809         0.211538
 C         2.384987        -1.327104         0.332636
 C         3.270832        -0.164616         0.003207
 C         4.572174         0.503360        -0.317585
 C         4.146484         2.070744        -0.072994
 O         2.893777         2.086324         0.692171
 C         2.614660         0.770959         0.979506
 O         2.270706         0.334437        -0.978783
 H        -0.588151        -0.203033         0.658795
 H        -0.079103         1.285763        -0.262732
 H        -0.070865        -0.353453        -1.090577
 H         2.495703        -1.874380         1.246518
 H         2.270044        -1.893627        -0.651834
 H         5.271581         0.185801         0.324824
 H         5.026576         0.350205        -1.332452
 H         5.006256         2.369828         0.532128
 H         4.062835         2.515747        -1.059757
 H         2.725299         0.440804         2.048766
