19
Iteration:  2464charge 0 multiplicity 1
 C        -0.013502         0.122834         0.072895
 C         1.478866         0.008774         0.182460
 C         2.424265        -1.270232         0.314388
 C         3.223506        -0.056937        -0.147701
 C         4.668737         0.512419        -0.285037
 C         4.334772         2.052395         0.078470
 O         2.935713         2.096853         0.578023
 C         2.563410         0.748042         0.981076
 O         2.121463         0.297433        -1.104140
 H        -0.568355         0.154042         0.974690
 H        -0.173261         0.929674        -0.597728
 H        -0.352773        -0.803656        -0.485017
 H         2.805253        -1.641632         1.291133
 H         2.174041        -2.101558        -0.377888
 H         5.411362         0.041131         0.386567
 H         4.996245         0.155289        -1.296250
 H         4.856336         2.387848         1.030686
 H         4.637030         2.841988        -0.810420
 H         2.652122         0.377383         1.973463
