19
Iteration:  4077
 C        -0.102992         0.022186        -0.004773
 C         1.380362         0.003426         0.006620
 C         2.350657        -1.280349         0.402306
 C         3.264240        -0.080717         0.016778
 C         4.618324         0.566440        -0.283594
 C         4.292183         2.055322        -0.075917
 O         3.052963         2.057853         0.862415
 C         2.503693         0.848140         0.971433
 O         2.335603         0.287791        -1.210931
 H        -0.473468        -0.219955         1.002090
 H        -0.316951         1.046097        -0.209945
 H        -0.547585        -0.607000        -0.774139
 H         2.258943        -1.481417         1.514800
 H         2.452844        -1.950105        -0.397113
 H         5.674995         0.035374         0.132366
 H         5.015995         0.505998        -1.303564
 H         5.178104         2.640265         0.365721
 H         4.021480         2.516386        -1.077238
 H         2.365090         0.422592         1.967792
