19
Iteration:  3022
 C        -0.030337         0.020790        -0.035097
 C         1.452971        -0.141889         0.179719
 C         2.429794        -1.252375         0.323352
 C         3.276272        -0.065132        -0.082389
 C         4.602450         0.483865        -0.238049
 C         4.323664         1.985890        -0.075813
 O         3.045155         2.111880         0.709660
 C         2.500686         0.828446         0.923135
 O         2.136463         0.464774        -1.034351
 H        -0.658263         0.158268         0.902931
 H        -0.081511         0.978532        -0.528841
 H        -0.463082        -0.694401        -0.673634
 H         2.661821        -1.656991         1.260423
 H         2.197286        -2.001269        -0.450140
 H         5.268393         0.034682         0.559106
 H         4.953593         0.205870        -1.221646
 H         5.216252         2.397520         0.443055
 H         4.291868         2.544382        -1.040414
 H         2.560561         0.549906         2.044473
