19
Iteration:  4048
 C         0.015574        -0.051416         0.053895
 C         1.422511         0.091825         0.072243
 C         2.321952        -1.233739         0.269334
 C         3.234975        -0.084880        -0.193480
 C         4.625560         0.485823        -0.162117
 C         4.293356         2.002388        -0.051594
 O         3.108989         2.171549         0.854716
 C         2.498261         0.891230         0.966358
 O         2.215168         0.216933        -1.233888
 H        -0.325591        -0.167461         1.172977
 H        -0.473670         0.835987        -0.440986
 H        -0.297240        -0.949981        -0.518437
 H         2.356429        -1.658583         1.329705
 H         2.124124        -1.997890        -0.492988
 H         4.975484         0.132571         0.764184
 H         5.489056         0.499613        -0.831183
 H         5.088211         2.717918         0.480776
 H         4.057790         2.643069        -0.911219
 H         2.397456         0.568831         2.086535
