19
Iteration:  1425
 C         0.048780         0.111494         0.036049
 C         1.532534        -0.009444         0.134752
 C         2.289213        -1.334664         0.297263
 C         3.234297        -0.090393        -0.109250
 C         4.613638         0.521906        -0.323872
 C         4.342167         2.032136         0.073480
 O         2.914539         2.153834         0.702086
 C         2.556449         0.791167         0.950268
 O         2.247661         0.291307        -1.136418
 H        -0.337645        -0.468343         0.880988
 H        -0.274037         1.158296         0.084265
 H        -0.417139        -0.364088        -0.844502
 H         2.449490        -1.653241         1.363085
 H         1.956457        -2.208621        -0.336209
 H         5.342917         0.060874         0.399820
 H         4.979169         0.438747        -1.354034
 H         4.908451         2.469367         0.852988
 H         4.288822         2.545209        -0.855653
 H         2.624884         0.688217         2.084305
