19
Iteration:  2837charge 0 multiplicity 1
 C        -0.091666         0.061126        -0.060083
 C         1.411797         0.011164         0.136729
 C         2.345354        -1.294973         0.308000
 C         3.259453        -0.095809        -0.096356
 C         4.791953         0.554798        -0.176612
 C         4.139171         1.971542        -0.142148
 O         3.096322         2.091635         0.851527
 C         2.648325         0.770017         0.934667
 O         2.176757         0.383174        -1.088596
 H        -0.538218        -0.122465         0.982301
 H        -0.430274         0.951984        -0.659029
 H        -0.325431        -0.849390        -0.594034
 H         2.335602        -1.725751         1.337829
 H         2.147996        -1.855959        -0.667598
 H         5.182741         0.173197         0.733595
 H         5.398258         0.327314        -1.030968
 H         4.809160         2.886250         0.075431
 H         3.803179         2.402662        -1.130647
 H         2.721179         0.535950         1.937894
