19
Iteration:  2875
 C        -0.005516         0.087471         0.042408
 C         1.447729        -0.006606        -0.002357
 C         2.353744        -1.292071         0.312914
 C         3.272922        -0.062764        -0.044348
 C         4.613203         0.426698        -0.286052
 C         4.171739         2.023303        -0.051517
 O         3.062484         2.141929         0.862408
 C         2.490649         0.867460         0.946160
 O         2.310560         0.295968        -1.145423
 H        -0.274802        -0.177514         1.036267
 H        -0.493236         1.049641        -0.005079
 H        -0.512809        -0.628084        -0.670707
 H         2.363336        -1.847707         1.299562
 H         2.285592        -1.991893        -0.498984
 H         5.544860         0.254065         0.343989
 H         4.993702         0.384756        -1.368577
 H         5.000637         2.593931         0.404642
 H         3.926640         2.489233        -1.009327
 H         2.589069         0.401297         2.027267
