19
Iteration:  2715
 C        -0.097482         0.034558         0.102194
 C         1.478117         0.003349         0.102882
 C         2.387614        -1.242034         0.247775
 C         3.344267        -0.095583        -0.034097
 C         4.656055         0.505651        -0.272782
 C         4.279851         1.990686         0.060711
 O         2.941704         2.091767         0.564474
 C         2.480098         0.845187         0.986810
 O         2.293602         0.333125        -1.111012
 H        -0.399212        -0.393213         1.039122
 H        -0.440104         1.106521         0.090372
 H        -0.566642        -0.529406        -0.789263
 H         2.428192        -1.620983         1.332523
 H         2.235719        -1.929361        -0.552790
 H         5.259765         0.040954         0.482554
 H         5.026500         0.386007        -1.311115
 H         4.996307         2.364423         0.912140
 H         4.475304         2.597358        -0.829178
 H         2.400350         0.731862         2.075463
