19
Iteration:  2386
 C        -0.042913         0.183032         0.064160
 C         1.461629        -0.048324         0.217157
 C         2.391394        -1.316587         0.289194
 C         3.223671        -0.123449        -0.112454
 C         4.663926         0.482852        -0.294135
 C         4.238197         2.030119        -0.087850
 O         2.919975         2.091580         0.663659
 C         2.580752         0.799544         1.013763
 O         2.332111         0.361578        -1.082156
 H        -0.550375        -0.374827         0.864856
 H        -0.315631         1.212240        -0.002040
 H        -0.325997        -0.410918        -0.791966
 H         2.496707        -1.721291         1.274582
 H         2.268286        -2.158831        -0.486926
 H         5.081962         0.134529         0.651854
 H         5.172180         0.245099        -1.206528
 H         4.980332         2.698010         0.455107
 H         3.879153         2.552133        -1.109170
 H         2.604600         0.541947         2.002821
