19
Iteration:   491
 C        -0.135751         0.021266         0.077609
 C         1.389633         0.037167         0.137181
 C         2.277543        -1.232594         0.147675
 C         3.268786        -0.040967        -0.161068
 C         4.630679         0.493985        -0.114966
 C         4.345322         2.024726         0.004879
 O         3.005966         2.111449         0.708988
 C         2.590860         0.775692         0.977587
 O         2.348908         0.348923        -1.157965
 H        -0.393591        -0.609604         0.956935
 H        -0.612163         0.972270         0.327522
 H        -0.376375        -0.571849        -0.823202
 H         2.448398        -1.807340         1.067482
 H         2.128531        -2.023247        -0.623505
 H         5.230257         0.087319         0.752221
 H         5.200034         0.093372        -0.923478
 H         4.944495         2.661265         0.575093
 H         4.165039         2.609862        -0.909856
 H         2.707445         0.332496         1.986699
