19
Iteration:  3981
 C         0.087850         0.245672         0.001735
 C         1.530561        -0.019754         0.105495
 C         2.326043        -1.303973         0.301644
 C         3.289886        -0.154668         0.000845
 C         4.582162         0.519070        -0.322765
 C         4.098212         2.090286         0.049277
 O         2.886555         2.102382         0.683610
 C         2.557299         0.789343         0.996396
 O         2.358537         0.177596        -1.109164
 H        -0.519106        -0.054142         0.962059
 H        -0.083828         1.306481        -0.270108
 H        -0.331480        -0.354921        -0.868112
 H         2.284737        -1.757144         1.350629
 H         2.444406        -1.851771        -0.592922
 H         5.509103         0.208688         0.143071
 H         4.751888         0.382907        -1.348292
 H         4.928287         2.670394         0.694550
 H         4.302348         2.503285        -0.930471
 H         2.647846         0.521089         2.114277
