19
Iteration:  3118
 C         0.080006         0.300043        -0.045751
 C         1.486221        -0.067093         0.210770
 C         2.422254        -1.358019         0.281097
 C         3.213211        -0.074277        -0.079547
 C         4.655414         0.551201        -0.229265
 C         4.175325         2.022248        -0.182417
 O         2.901891         2.071126         0.715148
 C         2.573658         0.708628         1.078176
 O         2.243099         0.274162        -1.068439
 H        -0.501294         0.010386         0.902696
 H         0.087380         1.428659        -0.068188
 H        -0.380507        -0.163505        -0.942041
 H         2.666340        -1.940908         1.246960
 H         2.125762        -2.051515        -0.581653
 H         5.255959         0.377968         0.757962
 H         5.171112         0.346436        -1.198889
 H         4.891566         2.747272         0.254349
 H         4.046307         2.293939        -1.208096
 H         2.562869         0.481406         2.130947
