19
Iteration:  1729charge 0 multiplicity 1
 C         0.043223         0.306885        -0.015670
 C         1.480943         0.025903         0.206781
 C         2.529995        -1.392944         0.223212
 C         3.281972        -0.148090        -0.048318
 C         4.586544         0.597871        -0.303903
 C         4.165499         1.996864        -0.095239
 O         2.972726         2.088359         0.770230
 C         2.531794         0.684756         1.013387
 O         2.191192         0.267164        -1.041891
 H        -0.704609         0.257803         0.731136
 H         0.006715         1.244847        -0.495617
 H        -0.349992        -0.463362        -0.670785
 H         2.493473        -1.900335         1.084939
 H         2.176184        -1.991836        -0.635939
 H         5.281723         0.289112         0.410101
 H         4.909295         0.416987        -1.261007
 H         5.001613         2.518121         0.376641
 H         4.034799         2.711129        -0.929366
 H         2.610418         0.422089         2.017513
