19
Iteration:  4305charge 0 multiplicity 1
 C        -0.024847         0.225903         0.192375
 C         1.474747        -0.060345         0.058834
 C         2.525526        -1.206448         0.333235
 C         3.289907        -0.067049        -0.093149
 C         4.606470         0.505642        -0.154232
 C         4.243785         2.023348         0.155127
 O         2.897259         2.121983         0.532924
 C         2.528986         0.804623         0.828200
 O         2.197899         0.135595        -1.256452
 H        -0.456751        -0.257892         1.143292
 H        -0.083073         1.313499         0.253345
 H        -0.482900        -0.168755        -0.746034
 H         2.447555        -1.428292         1.454988
 H         2.446842        -2.093298        -0.239989
 H         5.083598         0.047021         0.673265
 H         5.153567         0.371745        -1.010896
 H         4.998561         2.287385         0.956964
 H         4.624618         2.721237        -0.632578
 H         2.525906         0.426417         1.894778
