19
Iteration:  1052
 C         0.041952         0.306652         0.086997
 C         1.511778         0.036979         0.132230
 C         2.326761        -1.321654         0.236511
 C         3.331040        -0.170159        -0.052803
 C         4.636462         0.556495        -0.179270
 C         4.122559         2.019550        -0.114648
 O         2.944015         2.004672         0.655556
 C         2.548217         0.712162         0.963066
 O         2.324296         0.311471        -1.055486
 H        -0.636263        -0.108955         0.824447
 H        -0.162446         1.364285        -0.056097
 H        -0.319444        -0.215954        -0.832653
 H         2.274032        -1.729510         1.187483
 H         2.100880        -2.132450        -0.426195
 H         5.341718         0.365577         0.675626
 H         5.346595         0.340834        -1.064969
 H         4.715438         2.802318         0.424661
 H         3.855445         2.267141        -1.225199
 H         2.492562         0.356784         2.062270
