19
Iteration:   571
 C         0.051812         0.255217        -0.042923
 C         1.536306        -0.003308         0.018176
 C         2.198211        -1.342986         0.339752
 C         3.305436        -0.128529        -0.032253
 C         4.669363         0.591563        -0.290733
 C         4.196191         2.204180        -0.029836
 O         2.928008         2.022515         0.852420
 C         2.654273         0.652364         1.013970
 O         2.271043         0.234836        -1.141976
 H        -0.419207         0.158605         0.943437
 H         0.028059         1.294702        -0.431969
 H        -0.558962        -0.297559        -0.760938
 H         2.119065        -1.931087         1.257919
 H         2.214533        -2.042931        -0.454672
 H         5.464073         0.129909         0.365391
 H         4.798370         0.453829        -1.346801
 H         4.873620         2.884268         0.460393
 H         3.846093         2.512185        -0.981618
 H         2.636138         0.027079         1.909348
