19
Iteration:   891charge 0 multiplicity 1
 C        -0.039938         0.312389        -0.024007
 C         1.554551        -0.022182         0.099174
 C         2.301946        -1.334890         0.311171
 C         3.324258        -0.111780        -0.118062
 C         4.690261         0.564117        -0.099232
 C         4.117056         2.050932        -0.056299
 O         2.987884         2.059670         0.757805
 C         2.615846         0.717739         0.951930
 O         2.209509         0.203702        -1.152798
 H        -0.602468        -0.259994         0.767475
 H        -0.223472         1.396843         0.156215
 H        -0.575150         0.072685        -0.991221
 H         2.641579        -1.842912         1.304549
 H         2.049844        -1.972006        -0.542634
 H         5.398849         0.375395         0.697719
 H         5.397877         0.618700        -1.014496
 H         4.935655         2.651768         0.304034
 H         3.773934         2.312375        -1.046283
 H         2.798822         0.362304         1.943930
