19
Iteration:  2925
 C         0.069569         0.243127         0.032078
 C         1.485630        -0.056099         0.187976
 C         2.393309        -1.337654         0.276401
 C         3.280786        -0.156038        -0.148162
 C         4.642793         0.526203        -0.284763
 C         4.314531         2.055246         0.109748
 O         2.792075         2.112690         0.562347
 C         2.658998         0.760701         0.975451
 O         2.171667         0.273398        -1.044518
 H        -0.597961        -0.151727         0.892156
 H        -0.133609         1.316810         0.056637
 H        -0.254737        -0.165614        -0.893005
 H         2.473996        -1.785752         1.253342
 H         2.021306        -2.058067        -0.494500
 H         5.264899         0.055859         0.390274
 H         5.124512         0.560818        -1.221339
 H         4.939196         2.593851         0.853781
 H         4.376652         2.580185        -0.883498
 H         2.734054         0.499137         2.007668
