19
Iteration:  1336charge 0 multiplicity 1
 C        -0.089508         0.182290         0.007200
 C         1.386360         0.014710         0.053144
 C         2.443037        -1.349465         0.313437
 C         3.270271        -0.063372        -0.096170
 C         4.640396         0.550954        -0.245228
 C         4.254469         2.014584        -0.095649
 O         3.041233         2.102209         0.871401
 C         2.511870         0.778194         0.893321
 O         2.281017         0.313256        -1.086300
 H        -0.478235        -0.089840         1.032262
 H        -0.470060         1.144686        -0.446097
 H        -0.417026        -0.711220        -0.565216
 H         2.569129        -1.866107         1.405692
 H         2.373286        -2.140504        -0.445952
 H         5.254864         0.087094         0.542250
 H         5.222275         0.115913        -1.152480
 H         4.951166         2.702289         0.330365
 H         3.854226         2.352724        -1.113948
 H         2.506602         0.282981         1.929483
