19
Iteration:   366charge 0 multiplicity 1
 C        -0.005684         0.324184         0.010158
 C         1.432946        -0.013186         0.073006
 C         2.422088        -1.335301         0.295108
 C         3.336906        -0.102919        -0.019817
 C         4.666708         0.545350        -0.308638
 C         4.190500         2.034145         0.001671
 O         2.885207         2.049401         0.839044
 C         2.536850         0.727863         0.988224
 O         2.320613         0.238835        -1.210573
 H        -0.391196        -0.166665         0.896512
 H        -0.197711         1.408559         0.117677
 H        -0.541901         0.097315        -0.886322
 H         2.497649        -1.843533         1.292775
 H         2.397439        -1.989379        -0.520487
 H         5.324739         0.082819         0.395966
 H         5.070388         0.371209        -1.320139
 H         4.967065         2.632095         0.521439
 H         3.851396         2.372187        -0.951958
 H         2.289167         0.310475         1.958849
