19
Iteration:  4475charge 0 multiplicity 1
 C         0.026454         0.230784         0.082358
 C         1.465940        -0.045526         0.143775
 C         2.393127        -1.351183         0.245116
 C         3.290323        -0.066633         0.018508
 C         4.619272         0.564052        -0.134983
 C         4.296219         2.038881        -0.068284
 O         2.859864         2.070274         0.530499
 C         2.472064         0.820901         0.906362
 O         2.293945         0.188979        -1.054933
 H        -0.389989        -0.180251         0.964173
 H         0.012835         1.309494         0.157890
 H        -0.418111        -0.213126        -0.773537
 H         2.619031        -1.927093         1.192267
 H         2.330374        -1.910268        -0.690623
 H         5.236846         0.307634         0.787904
 H         5.279509         0.408103        -1.092975
 H         4.928627         2.650789         0.634324
 H         4.223587         2.602645        -1.042369
 H         2.471492         0.554459         1.969516
