19
Iteration:  3545
 C        -0.056835        -0.020533        -0.007431
 C         1.449102        -0.013320         0.134982
 C         2.343866        -1.225704         0.348723
 C         3.247181        -0.101605        -0.029438
 C         4.568205         0.417402        -0.280270
 C         4.270553         1.941158        -0.060872
 O         3.012719         2.245763         0.695544
 C         2.571624         0.903752         0.958346
 O         2.325902         0.321861        -1.063176
 H        -0.450347        -0.314289         0.926823
 H        -0.405224         1.021613        -0.263219
 H        -0.360633        -0.791601        -0.777400
 H         2.201534        -1.757841         1.208903
 H         2.128371        -1.825135        -0.590437
 H         5.432386         0.053437         0.424240
 H         4.835835         0.504069        -1.357955
 H         5.200005         2.210773         0.540852
 H         4.285344         2.466713        -1.009959
 H         2.515550         0.596920         2.050731
