19
Iteration:  4091
 C        -0.028148         0.125288        -0.081876
 C         1.490380        -0.034293         0.078271
 C         2.375576        -1.277847         0.342525
 C         3.285360        -0.073013         0.003235
 C         4.625475         0.532235        -0.368268
 C         4.203611         1.991544        -0.053571
 O         3.011324         2.109112         0.764885
 C         2.491297         0.758506         1.022932
 O         2.321393         0.313627        -1.065101
 H        -0.560192        -0.279100         0.868683
 H        -0.367193         1.179137        -0.253535
 H        -0.415251        -0.486147        -0.923452
 H         2.464746        -1.652747         1.388284
 H         2.218282        -2.185927        -0.244617
 H         5.407039         0.239391         0.368960
 H         4.732898         0.322534        -1.424383
 H         4.969099         2.644604         0.526680
 H         3.950679         2.582375        -0.948266
 H         2.482368         0.655295         2.163441
