19
Iteration:   838charge 0 multiplicity 1
 C        -0.028120         0.196328        -0.112362
 C         1.489967         0.000753         0.053175
 C         2.391028        -1.394708         0.245265
 C         3.273618        -0.077904         0.111112
 C         4.631420         0.458711        -0.336679
 C         4.218200         2.000311        -0.138110
 O         3.015101         2.091583         0.872985
 C         2.467998         0.814725         1.036579
 O         2.321233         0.359901        -1.023836
 H        -0.637727        -0.095474         0.775724
 H        -0.361037         1.217837        -0.344011
 H        -0.321448        -0.501431        -0.915947
 H         2.328811        -1.848939         1.227345
 H         2.343173        -2.013640        -0.586197
 H         5.509439         0.127875         0.263776
 H         4.854973         0.426749        -1.439769
 H         4.967774         2.745821         0.154507
 H         3.751500         2.307906        -1.074549
 H         2.382929         0.484845         2.094150
