19
Iteration:   994
 C        -0.092552         0.103967        -0.095385
 C         1.481860         0.033694         0.067004
 C         2.487235        -1.253580         0.380105
 C         3.244091        -0.004690         0.004659
 C         4.607606         0.449290        -0.311613
 C         4.340059         1.960671        -0.030812
 O         3.031961         2.087015         0.835445
 C         2.489767         0.825200         0.976629
 O         2.159506         0.280016        -1.163487
 H        -0.422421         0.284741         0.923326
 H        -0.316343         1.010914        -0.670539
 H        -0.584675        -0.735281        -0.561919
 H         2.674628        -1.627469         1.344874
 H         2.376325        -1.966496        -0.451370
 H         5.437821         0.300325         0.481203
 H         4.706362         0.122718        -1.312397
 H         4.965253         2.520496         0.633722
 H         4.287806         2.480419        -0.965637
 H         2.635225         0.415476         1.978136
