19
Iteration:  2029charge 0 multiplicity 1
 C         0.035064         0.123493        -0.007480
 C         1.485188         0.012420         0.058631
 C         2.384330        -1.353712         0.327341
 C         3.252573        -0.115013         0.046296
 C         4.573438         0.537167        -0.316147
 C         4.107448         1.998088        -0.248924
 O         3.050652         2.042680         0.837236
 C         2.531428         0.769985         1.032090
 O         2.317817         0.428553        -1.072960
 H        -0.480556        -0.326839         0.805247
 H        -0.244975         1.154824        -0.025667
 H        -0.311142        -0.380469        -0.940885
 H         2.428914        -1.816334         1.258995
 H         2.328955        -2.058762        -0.511069
 H         5.262447         0.308234         0.479249
 H         4.783459         0.297474        -1.334201
 H         4.912268         2.629161         0.333115
 H         3.879904         2.506947        -1.131487
 H         2.638443         0.531101         2.177782
