19
Iteration:  3487
 C        -0.039858         0.072241         0.059175
 C         1.442303        -0.027231         0.126994
 C         2.423170        -1.302714         0.304494
 C         3.134844        -0.022567        -0.099071
 C         4.638987         0.442935        -0.234547
 C         4.420999         2.051365         0.067576
 O         2.992297         2.157271         0.623513
 C         2.477136         0.877777         0.952461
 O         2.201314         0.222145        -1.151912
 H        -0.552705         0.078018         1.090263
 H        -0.209347         1.022711        -0.427672
 H        -0.373129        -0.728427        -0.592243
 H         2.635134        -1.635236         1.336351
 H         2.332367        -2.037982        -0.438187
 H         5.427749        -0.127330         0.509987
 H         5.126617         0.359414        -1.216927
 H         5.089425         2.543893         0.772833
 H         4.367892         2.713240        -0.792868
 H         2.602714         0.691983         2.115927
