19
Iteration:  2323
 C        -0.052971         0.114507         0.031444
 C         1.424806         0.042417         0.087189
 C         2.302317        -1.195275         0.331180
 C         3.292303        -0.108170         0.008956
 C         4.556105         0.544087        -0.311748
 C         4.130614         2.008279        -0.124391
 O         3.131784         2.036872         0.862821
 C         2.549432         0.796147         0.892422
 O         2.389015         0.279501        -1.109791
 H        -0.339760        -0.487102         0.911220
 H        -0.546165         1.080103        -0.071531
 H        -0.484817        -0.656318        -0.778172
 H         2.345120        -1.587350         1.355971
 H         2.272033        -2.080503        -0.388778
 H         5.497637         0.412815         0.269661
 H         4.867083         0.300103        -1.348203
 H         4.818797         2.807693         0.128842
 H         3.770703         2.187336        -1.161419
 H         2.567446         0.591218         2.095001
