19
Iteration:  1379charge 0 multiplicity 1
 C         0.030337         0.212064         0.075178
 C         1.492426        -0.007644         0.119949
 C         2.347630        -1.354783         0.235655
 C         3.287981        -0.155485        -0.124774
 C         4.631068         0.536308        -0.253351
 C         4.275053         2.070926         0.029322
 O         2.851806         2.105301         0.662423
 C         2.535701         0.752330         0.967942
 O         2.311467         0.295071        -1.065164
 H        -0.431086         0.227599         1.098852
 H        -0.203664         1.210463        -0.413238
 H        -0.698040        -0.471405        -0.405982
 H         2.483384        -1.983633         1.197198
 H         2.201996        -2.101962        -0.542344
 H         5.388732         0.192762         0.415194
 H         5.123940         0.500160        -1.287771
 H         5.059744         2.383012         0.691413
 H         4.142929         2.531535        -1.008922
 H         2.637560         0.512998         2.133697
