19
Iteration:  2602
 C         0.028075         0.244379         0.028227
 C         1.541992         0.018084         0.084529
 C         2.278003        -1.333728         0.262075
 C         3.344326        -0.202141        -0.004243
 C         4.630226         0.557355        -0.261083
 C         4.008163         1.994680        -0.174517
 O         2.944707         2.054857         0.728182
 C         2.527376         0.756780         1.067630
 O         2.445567         0.322990        -1.066993
 H        -0.450212        -0.093783         1.057372
 H        -0.244210         1.284916        -0.220500
 H        -0.603994        -0.435440        -0.634008
 H         2.539129        -1.687339         1.260681
 H         2.199856        -2.198613        -0.527496
 H         5.498235         0.327951         0.467250
 H         4.942143         0.547017        -1.313965
 H         4.767570         2.816210         0.339344
 H         3.811108         2.404914        -1.153465
 H         2.526733         0.611382         2.151775
