19
Iteration:  3299charge 0 multiplicity 1
 C         0.002857         0.180726         0.018882
 C         1.504175        -0.043127         0.171378
 C         2.391408        -1.262840         0.365926
 C         3.310723        -0.112981        -0.108106
 C         4.637049         0.526427        -0.189592
 C         4.140725         2.068713        -0.035451
 O         3.011323         2.047884         0.741315
 C         2.552538         0.809822         0.896836
 O         2.185272         0.222997        -1.169164
 H        -0.695056         0.133563         0.803001
 H         0.088519         1.302902        -0.191277
 H        -0.413012        -0.268362        -0.914797
 H         2.562128        -1.602989         1.337035
 H         2.294085        -2.183820        -0.291663
 H         5.388830         0.111416         0.590731
 H         5.222403         0.391614        -1.210681
 H         4.913190         2.767018         0.414279
 H         4.056438         2.542704        -1.096608
 H         2.482616         0.516141         2.003064
