19
Iteration:  3446charge 0 multiplicity 1
 C        -0.005851         0.261751         0.056724
 C         1.492402        -0.121114         0.145275
 C         2.262162        -1.348240         0.353534
 C         3.319613        -0.079414        -0.081758
 C         4.719362         0.514799        -0.347128
 C         4.273733         2.108144         0.057915
 O         2.774090         2.055474         0.527674
 C         2.522360         0.742120         1.000961
 O         2.415003         0.302159        -1.072510
 H        -0.332792        -0.001263         1.104787
 H        -0.056192         1.347222        -0.032334
 H        -0.599262        -0.305727        -0.680126
 H         2.169898        -1.596150         1.411923
 H         2.091756        -2.285629        -0.178802
 H         5.522921        -0.080440         0.212400
 H         4.857990         0.382658        -1.389137
 H         5.032227         2.644650         0.828734
 H         4.394039         2.694850        -0.838430
 H         2.410682         0.589854         2.078782
