19
Iteration:  1839
 C        -0.032318         0.025761         0.037465
 C         1.476094         0.063842         0.198558
 C         2.287914        -1.282326         0.267517
 C         3.261208        -0.125476        -0.059727
 C         4.628357         0.504119        -0.258845
 C         4.236905         2.016507        -0.036834
 O         2.942331         2.113890         0.688860
 C         2.668288         0.749759         0.963785
 O         2.263275         0.415065        -1.100826
 H        -0.489910        -0.423957         0.923886
 H        -0.425019         1.059821        -0.112435
 H        -0.090072        -0.504016        -0.915345
 H         2.422256        -1.821933         1.211087
 H         2.160840        -2.026250        -0.552043
 H         5.284107         0.095290         0.518113
 H         4.859168         0.226151        -1.299575
 H         5.164194         2.472963         0.435198
 H         4.244428         2.753325        -0.945088
 H         2.782335         0.338919         2.021944
