19
Iteration:  3056charge 0 multiplicity 1
 C        -0.051841         0.145122         0.027977
 C         1.494842         0.050549         0.114806
 C         2.307872        -1.318114         0.330242
 C         3.323052        -0.215166        -0.016523
 C         4.590530         0.554831        -0.222303
 C         4.186785         2.036189        -0.179254
 O         3.023669         2.142856         0.830928
 C         2.578066         0.739994         0.924854
 O         2.334485         0.307048        -1.152600
 H        -0.531405        -0.192418         1.000499
 H        -0.353092         1.116647        -0.294906
 H        -0.449872        -0.492908        -0.699834
 H         2.412518        -1.803757         1.247584
 H         2.010392        -1.974473        -0.439609
 H         5.394276         0.313985         0.489461
 H         4.947857         0.359170        -1.203863
 H         4.917592         2.656021         0.313980
 H         3.678401         2.494841        -1.042648
 H         2.621759         0.456860         2.056161
