19
Iteration:  4014charge 0 multiplicity 1
 C        -0.099723         0.055184         0.011954
 C         1.463756        -0.045942         0.073587
 C         2.403865        -1.271286         0.227158
 C         3.254345        -0.104605        -0.046300
 C         4.717726         0.484581        -0.202914
 C         4.262900         2.004836        -0.049155
 O         2.967315         2.065889         0.585681
 C         2.525087         0.788307         1.041064
 O         2.260285         0.450645        -1.026043
 H        -0.547138         0.135100         1.108121
 H        -0.358769         1.040359        -0.428894
 H        -0.569815        -0.813328        -0.526014
 H         2.438369        -1.733664         1.285449
 H         2.469682        -2.057438        -0.494504
 H         5.294445         0.168882         0.679240
 H         5.266488         0.415320        -1.122976
 H         4.896794         2.571119         0.787621
 H         4.159035         2.379893        -1.098886
 H         2.496135         0.751136         2.220881
