19
Iteration:  4549charge 0 multiplicity 1
 C        -0.080534        -0.063086        -0.067923
 C         1.395696        -0.053462         0.126686
 C         2.340233        -1.318348         0.383151
 C         3.298540        -0.059436         0.070241
 C         4.606624         0.527280        -0.336834
 C         4.459751         1.999806         0.109966
 O         3.013640         2.251901         0.479565
 C         2.466662         0.928729         0.939591
 O         2.251621         0.259054        -0.990281
 H        -0.499753        -0.137970         0.948652
 H        -0.421671         0.898578        -0.593453
 H        -0.263249        -1.024427        -0.566164
 H         2.260264        -1.823705         1.352686
 H         2.246876        -1.923757        -0.561991
 H         5.509206         0.030154        -0.145202
 H         4.601530         0.551351        -1.430429
 H         5.055629         2.168000         1.086437
 H         4.577881         2.844140        -0.639645
 H         2.369102         0.762889         2.056330
