19
Iteration:   615charge 0 multiplicity 1
 C        -0.097976         0.135769         0.010264
 C         1.385696         0.074467         0.046345
 C         2.502670        -1.385140         0.122264
 C         3.256166        -0.045979         0.017024
 C         4.656162         0.409204        -0.116829
 C         4.253526         1.988107        -0.127335
 O         3.035205         2.085028         0.794864
 C         2.517957         0.773145         0.965854
 O         2.224680         0.448366        -1.075789
 H        -0.329281         0.007540         1.077355
 H        -0.489849         1.005098        -0.542154
 H        -0.488151        -0.796332        -0.420750
 H         2.508029        -2.044632         0.988492
 H         2.656155        -2.062997        -0.712029
 H         5.178738         0.212986         0.876740
 H         5.232374         0.195914        -1.015066
 H         4.917956         2.738349         0.280535
 H         3.871308         2.223538        -1.091225
 H         2.616033         0.651534         2.079480
