19
Iteration:  3150
 C        -0.019570         0.103206         0.009791
 C         1.454155         0.045676         0.111837
 C         2.329107        -1.303194         0.327394
 C         3.294971        -0.126501        -0.047645
 C         4.679126         0.481432        -0.301616
 C         4.157465         2.040792        -0.065860
 O         3.004138         2.103392         0.686840
 C         2.548103         0.771705         1.002054
 O         2.305860         0.354868        -1.076559
 H        -0.320372        -0.181671         1.089520
 H        -0.403531         1.123030        -0.313125
 H        -0.570558        -0.572678        -0.691004
 H         2.485705        -1.779806         1.391284
 H         2.084811        -2.046280        -0.533102
 H         5.486804         0.152249         0.481118
 H         5.185603         0.285711        -1.278322
 H         4.917854         2.587796         0.572653
 H         4.029999         2.418424        -1.084892
 H         2.349079         0.579668         2.203697
