19
Iteration:    99
 C        -0.044572         0.112727        -0.129059
 C         1.502979         0.141526         0.163313
 C         2.276930        -1.295892         0.389925
 C         3.291684        -0.189221         0.003066
 C         4.634991         0.561827        -0.389054
 C         4.296408         2.030923        -0.055739
 O         2.947623         2.080764         0.813483
 C         2.641483         0.750678         1.024767
 O         2.256162         0.282121        -1.073772
 H        -0.740669        -0.306683         0.557110
 H        -0.498874         1.012407        -0.470424
 H        -0.089468        -0.545822        -0.968089
 H         2.341328        -1.873750         1.292466
 H         2.094380        -1.916237        -0.430830
 H         5.410278         0.196172         0.154904
 H         4.731787         0.587687        -1.445368
 H         5.017511         2.737661         0.343683
 H         3.962108         2.586809        -0.989798
 H         2.837539         0.417041         2.082092
