19
Iteration:  4781
 C        -0.020091         0.148192         0.008428
 C         1.410719         0.000121         0.102128
 C         2.479988        -1.297757         0.326827
 C         3.300252        -0.022790        -0.046784
 C         4.690491         0.457163        -0.124599
 C         4.239247         1.943991        -0.078189
 O         2.905865         2.100228         0.572816
 C         2.447275         0.854585         0.988330
 O         2.292058         0.290138        -1.085570
 H        -0.433302         0.235022         1.073882
 H        -0.170294         1.180112        -0.431277
 H        -0.514990        -0.747740        -0.569899
 H         2.730354        -1.735480         1.366274
 H         2.263420        -2.098945        -0.421512
 H         5.285359         0.187866         0.763463
 H         5.122555         0.332052        -1.122044
 H         4.945235         2.661793         0.500108
 H         4.036519         2.236540        -1.125363
 H         2.514023         0.554174         2.086686
