19
Iteration:   577charge 0 multiplicity 1
 C         0.065698         0.238535        -0.034251
 C         1.501673        -0.037371         0.044121
 C         2.233917        -1.271449         0.325268
 C         3.292718        -0.129209        -0.065384
 C         4.664363         0.574086        -0.262713
 C         4.116892         2.126275        -0.008133
 O         2.964322         2.007115         0.853831
 C         2.639722         0.685008         0.970648
 O         2.289310         0.274762        -1.153064
 H        -0.354441         0.266009         0.984930
 H        -0.119462         1.259204        -0.400584
 H        -0.538146        -0.447853        -0.665547
 H         2.092606        -1.749594         1.333834
 H         2.516000        -1.873741        -0.613775
 H         5.344783         0.085172         0.448329
 H         4.929151         0.225058        -1.317108
 H         4.886487         2.799408         0.455286
 H         3.806570         2.530700        -1.032060
 H         2.723063         0.213253         1.999410
