19
Iteration:  4387charge 0 multiplicity 1
 C        -0.060554         0.027985        -0.170056
 C         1.403366        -0.060719         0.086513
 C         2.428536        -1.247414         0.467488
 C         3.187505        -0.049481        -0.024056
 C         4.609150         0.531722        -0.259328
 C         4.211216         2.097317        -0.153281
 O         3.193642         2.080204         0.876775
 C         2.504172         0.878812         1.022661
 O         2.242014         0.220059        -1.187509
 H        -0.644004         0.059034         0.710691
 H        -0.423114         0.974045        -0.583132
 H        -0.612760        -0.698529        -0.715199
 H         2.528297        -1.349681         1.569587
 H         2.522417        -2.201780        -0.135343
 H         5.350947         0.104536         0.532282
 H         5.097376         0.342972        -1.329148
 H         5.056128         2.638096         0.336515
 H         3.856413         2.531048        -1.104495
 H         2.425263         0.707226         2.088931
