19
Iteration:  3069charge 0 multiplicity 1
 C         0.058390         0.168737         0.064923
 C         1.480428        -0.003023         0.044451
 C         2.197567        -1.287133         0.327105
 C         3.295985        -0.125466        -0.039400
 C         4.681721         0.561226        -0.300913
 C         4.058838         2.085996        -0.121550
 O         3.040588         2.037639         0.814455
 C         2.536873         0.760560         0.945652
 O         2.394128         0.259442        -1.102189
 H        -0.317254        -0.124795         1.036275
 H        -0.151745         1.225947         0.000962
 H        -0.462709        -0.373390        -0.747394
 H         2.065857        -1.598476         1.349534
 H         2.184048        -2.067932        -0.365275
 H         5.253040         0.383899         0.520034
 H         5.149344         0.382760        -1.238437
 H         4.871541         2.755018         0.129445
 H         3.806911         2.326896        -1.183918
 H         2.458116         0.454001         2.096287
