19
Iteration:  3453charge 0 multiplicity 1
 C         0.022053         0.217937         0.076353
 C         1.441917        -0.065031         0.131571
 C         2.294421        -1.360799         0.341378
 C         3.339011        -0.141503        -0.019908
 C         4.740232         0.472077        -0.335765
 C         4.254091         2.089198         0.049559
 O         2.794346         2.077787         0.520739
 C         2.563489         0.764290         0.972603
 O         2.360558         0.344824        -1.092701
 H        -0.531623         0.060041         1.063035
 H        -0.143626         1.258895        -0.181284
 H        -0.570663        -0.340575        -0.637828
 H         2.155896        -1.616569         1.419404
 H         2.166754        -2.203013        -0.297415
 H         5.653189         0.080340         0.347025
 H         4.885326         0.378265        -1.450174
 H         4.743721         2.397406         0.938076
 H         4.286025         2.820617        -0.778734
 H         2.537730         0.737167         2.165571
