19
Iteration:  4787
 C        -0.007145         0.148764         0.044873
 C         1.461976         0.015699         0.134392
 C         2.422477        -1.236177         0.336765
 C         3.287227        -0.081476        -0.036853
 C         4.687850         0.531553        -0.088735
 C         4.231575         1.952165        -0.082705
 O         2.878631         2.033970         0.539869
 C         2.431652         0.805985         0.952218
 O         2.319082         0.318443        -1.120002
 H        -0.359046         0.157134         1.059833
 H        -0.285794         1.134117        -0.357148
 H        -0.578308        -0.592048        -0.425393
 H         2.819846        -1.562545         1.291925
 H         2.288770        -1.997197        -0.410497
 H         5.347045         0.143729         0.699841
 H         5.217524         0.285717        -1.027795
 H         4.886186         2.494705         0.527718
 H         4.315176         2.200096        -1.161335
 H         2.515337         0.512472         1.993980
