19
Iteration:   243charge 0 multiplicity 1
 C         0.025514         0.268866        -0.101884
 C         1.471933        -0.034975         0.110960
 C         2.351344        -1.334178         0.356792
 C         3.318423        -0.128574        -0.164035
 C         4.617717         0.654189        -0.346336
 C         4.203744         2.061862         0.087672
 O         2.993401         2.098995         0.834842
 C         2.596041         0.718901         0.934944
 O         2.161495         0.168405        -1.106876
 H        -0.600039         0.229488         0.784248
 H         0.030930         1.184666        -0.690433
 H        -0.476671        -0.529691        -0.659752
 H         2.499323        -1.508362         1.424251
 H         2.333440        -2.360536        -0.113824
 H         5.216657         0.321464         0.531470
 H         5.007521         0.604630        -1.324814
 H         5.143647         2.328981         0.716981
 H         4.251883         2.653831        -0.832776
 H         2.616267         0.372048         2.015281
