19
Iteration:   839
 C        -0.027191         0.198294        -0.116390
 C         1.487262         0.000077         0.047189
 C         2.395481        -1.393569         0.251390
 C         3.267077        -0.081101         0.117469
 C         4.620103         0.465010        -0.338106
 C         4.215471         1.995031        -0.142580
 O         3.014279         2.090264         0.870843
 C         2.477259         0.815463         1.030310
 O         2.325765         0.361514        -1.016917
 H        -0.601301        -0.114473         0.780975
 H        -0.329491         1.227025        -0.340496
 H        -0.336257        -0.476178        -0.910154
 H         2.328632        -1.861638         1.205013
 H         2.343219        -1.998252        -0.589064
 H         5.517037         0.117716         0.250348
 H         4.857075         0.426093        -1.409965
 H         4.967774         2.744189         0.186612
 H         3.725519         2.308962        -1.073077
 H         2.390329         0.461642         2.094577
