19
Iteration:  3281charge 0 multiplicity 1
 C         0.067265         0.301483         0.037548
 C         1.524234         0.001685         0.082035
 C         2.348809        -1.320466         0.380990
 C         3.263687        -0.108518        -0.086196
 C         4.589776         0.552282        -0.318052
 C         4.231020         2.030007         0.001385
 O         2.882392         2.153968         0.729151
 C         2.544463         0.702637         0.966066
 O         2.301529         0.131890        -1.151114
 H        -0.386908        -0.155853         0.981186
 H        -0.274481         1.326723        -0.081193
 H        -0.369707        -0.319931        -0.748103
 H         2.462180        -1.858055         1.400921
 H         2.186483        -2.107599        -0.351998
 H         5.299021         0.445011         0.494317
 H         5.013794         0.473766        -1.295355
 H         4.983729         2.728134         0.554874
 H         4.117072         2.631253        -0.900373
 H         2.715258         0.399896         1.963835
