19
Iteration:  1001
 C        -0.066313         0.128373        -0.083526
 C         1.466375         0.033626         0.066515
 C         2.442771        -1.256565         0.359367
 C         3.269731        -0.040832        -0.036896
 C         4.568830         0.506368        -0.325349
 C         4.291452         1.950761        -0.017329
 O         3.073643         2.076211         0.826404
 C         2.431891         0.857866         0.998965
 O         2.237669         0.232928        -1.156008
 H        -0.306788         0.300068         1.015653
 H        -0.312455         1.119683        -0.543128
 H        -0.669367        -0.710743        -0.484987
 H         2.728744        -1.784734         1.431812
 H         2.451590        -2.051548        -0.399757
 H         5.359203         0.242748         0.429154
 H         4.880206         0.325612        -1.382240
 H         5.080483         2.465717         0.582619
 H         4.116045         2.551529        -0.910134
 H         2.357066         0.491354         2.028869
