19
Iteration:  2896charge 0 multiplicity 1
 C        -0.044752         0.165423         0.076084
 C         1.467172        -0.022837         0.104753
 C         2.381494        -1.270631         0.293868
 C         3.275492        -0.130856         0.006967
 C         4.627778         0.561595        -0.353541
 C         4.298205         2.026721        -0.014231
 O         2.903938         2.046406         0.695367
 C         2.550802         0.763414         1.004317
 O         2.329999         0.328558        -1.119398
 H        -0.563859        -0.220743         0.957419
 H        -0.341184         1.197992        -0.044486
 H        -0.342262        -0.390358        -0.858447
 H         2.216584        -1.765422         1.305620
 H         2.214752        -2.005798        -0.480027
 H         5.495731         0.146056         0.249104
 H         4.955494         0.466870        -1.418534
 H         5.009730         2.495091         0.627027
 H         4.134794         2.512632        -0.988910
 H         2.328429         0.502441         2.053463
