19
Iteration:   864charge 0 multiplicity 1
 C         0.022006         0.288548        -0.074652
 C         1.543233        -0.035244         0.114645
 C         2.320358        -1.327466         0.259202
 C         3.293798        -0.112734         0.037077
 C         4.607411         0.496984        -0.299697
 C         4.084694         2.057424        -0.134191
 O         2.967420         2.013972         0.776613
 C         2.554195         0.709878         1.095128
 O         2.366101         0.322863        -1.080630
 H        -0.709119        -0.144296         0.599058
 H        -0.164032         1.366381        -0.114462
 H        -0.222103        -0.105258        -1.055530
 H         2.312379        -1.580847         1.303606
 H         2.187240        -2.178800        -0.465476
 H         5.385562         0.345902         0.482721
 H         5.057727         0.371415        -1.241586
 H         4.922017         2.651850         0.337294
 H         3.728551         2.525718        -1.107020
 H         2.584242         0.475915         2.196918
