19
Iteration:   807
 C        -0.032784         0.051958        -0.047101
 C         1.470506         0.068853         0.068863
 C         2.277849        -1.280512         0.319788
 C         3.221663        -0.042562        -0.130628
 C         4.585795         0.532898        -0.176111
 C         4.268509         2.008063        -0.028103
 O         3.063019         2.043040         0.826775
 C         2.628964         0.778295         0.900259
 O         2.251351         0.348142        -1.109874
 H        -0.484123        -0.018541         0.949820
 H        -0.490155         0.885855        -0.587986
 H        -0.356409        -0.793188        -0.620660
 H         2.298758        -1.698891         1.297969
 H         2.104435        -2.011499        -0.418964
 H         4.996171         0.207961         0.822620
 H         5.293498         0.440321        -1.016005
 H         5.133627         2.613931         0.365179
 H         4.034841         2.441446        -1.038990
 H         2.917709         0.325995         1.929431
