19
Iteration:  1035
 C         0.031197         0.222561        -0.007453
 C         1.467702         0.050403         0.091762
 C         2.144409        -1.290634         0.347853
 C         3.337603        -0.148313        -0.025018
 C         4.726895         0.609453        -0.248924
 C         4.170444         2.070039        -0.084092
 O         2.931531         2.031838         0.749046
 C         2.615171         0.708247         1.006911
 O         2.322881         0.228364        -1.187518
 H        -0.224141         0.004948         1.077932
 H        -0.270327         1.290229        -0.125394
 H        -0.634243        -0.422807        -0.593258
 H         2.267407        -1.846405         1.401127
 H         2.101628        -1.991055        -0.521208
 H         5.447445         0.246609         0.534754
 H         5.239266         0.434952        -1.165622
 H         5.062021         2.526222         0.343727
 H         3.796555         2.593823        -0.912444
 H         2.745555         0.387583         2.034857
