19
Iteration:  2787charge 0 multiplicity 1
 C        -0.033608         0.203409         0.063233
 C         1.489790        -0.029029         0.060563
 C         2.362659        -1.331430         0.277750
 C         3.327519        -0.196571         0.038710
 C         4.644378         0.529589        -0.351735
 C         4.181738         2.050408         0.004905
 O         2.900244         2.127225         0.709320
 C         2.528104         0.742613         1.000330
 O         2.364471         0.282542        -1.104224
 H        -0.510932         0.058584         1.044382
 H        -0.122443         1.228383        -0.243149
 H        -0.510635        -0.389299        -0.717038
 H         2.342744        -1.685787         1.285893
 H         2.173668        -2.006963        -0.570892
 H         5.656471         0.299059         0.146390
 H         4.811178         0.587941        -1.434295
 H         4.928055         2.640107         0.477867
 H         3.971386         2.592868        -0.925361
 H         2.542834         0.537121         2.167556
