19
Iteration:  3745charge 0 multiplicity 1
 C        -0.079542         0.068090         0.114631
 C         1.452822        -0.032496         0.017925
 C         2.304247        -1.269203         0.355615
 C         3.307932        -0.050765        -0.108900
 C         4.665745         0.505161        -0.269795
 C         4.318083         2.044212         0.152915
 O         2.994533         2.177372         0.645384
 C         2.569737         0.847010         0.878799
 O         2.185798         0.197257        -1.190697
 H        -0.326850        -0.409648         1.097609
 H        -0.357479         1.095226         0.127214
 H        -0.584253        -0.400884        -0.684142
 H         2.411227        -1.670215         1.342946
 H         2.193523        -2.019927        -0.332307
 H         5.295039         0.095883         0.555663
 H         5.324366         0.313507        -1.211025
 H         5.105200         2.280879         0.868536
 H         4.406439         2.789510        -0.694458
 H         2.696475         0.641207         1.983590
