19
Iteration:  3638charge 0 multiplicity 1
 C        -0.038559         0.297923        -0.005527
 C         1.484935        -0.047912         0.006485
 C         2.293189        -1.359000         0.416799
 C         3.350676        -0.145192        -0.038591
 C         4.737282         0.556281        -0.227683
 C         4.096794         2.092169        -0.169436
 O         3.012098         2.048951         0.777643
 C         2.497048         0.721336         1.000460
 O         2.346515         0.259871        -1.120965
 H        -0.213735         0.127278         1.130120
 H        -0.196904         1.345877        -0.158154
 H        -0.672371        -0.350591        -0.585204
 H         2.162750        -1.688634         1.519249
 H         2.404545        -2.181666        -0.288210
 H         5.402511         0.208491         0.451627
 H         4.990963         0.488655        -1.238091
 H         4.692840         2.994440         0.088664
 H         3.687388         2.183341        -1.235569
 H         2.477780         0.590060         2.053806
