19
Iteration:  2252
 C         0.011532         0.202021         0.164793
 C         1.506246        -0.024466         0.083007
 C         2.399994        -1.358868         0.248351
 C         3.317242        -0.127465        -0.024876
 C         4.657309         0.525049        -0.273925
 C         4.249353         1.969774         0.056772
 O         2.880286         2.118904         0.554955
 C         2.546911         0.788555         0.879998
 O         2.212520         0.324869        -1.056267
 H        -0.409168         0.189231         1.196900
 H        -0.141519         1.166227        -0.365951
 H        -0.572406        -0.540662        -0.268540
 H         2.175687        -1.757034         1.248950
 H         2.483327        -2.105031        -0.449497
 H         5.445201         0.092488         0.353404
 H         5.094658         0.421787        -1.291863
 H         4.860751         2.465247         0.881337
 H         4.249368         2.779376        -0.806676
 H         2.584898         0.543726         1.941379
