19
Iteration:  3857
 C         0.008887        -0.001876        -0.013122
 C         1.493727         0.000404         0.177247
 C         2.371415        -1.233299         0.260958
 C         3.191572        -0.066693        -0.115839
 C         4.569999         0.502734        -0.119576
 C         4.212023         1.979437        -0.040897
 O         3.130520         2.181625         0.786310
 C         2.496620         0.857528         0.879400
 O         2.226068         0.273894        -1.123677
 H        -0.485855        -0.012389         0.924415
 H        -0.213662         0.966654        -0.538501
 H        -0.431422        -0.794794        -0.654576
 H         2.577910        -1.716286         1.132077
 H         2.318650        -2.017584        -0.586716
 H         5.201980         0.166503         0.733890
 H         4.982898         0.370184        -1.136887
 H         5.170705         2.377223         0.334801
 H         4.034119         2.464267        -1.049585
 H         2.531584         0.506856         1.940651
