19
Iteration:  2216
 C        -0.112944         0.084753         0.203103
 C         1.412788         0.053669         0.070411
 C         2.373464        -1.235196         0.376708
 C         3.272666        -0.103256        -0.151895
 C         4.671083         0.545603        -0.362941
 C         4.312271         2.005874         0.130402
 O         2.948880         2.141208         0.676467
 C         2.537860         0.819618         0.864310
 O         2.314743         0.169613        -1.182647
 H        -0.465965        -0.176956         1.179441
 H        -0.578325         1.036247        -0.012127
 H        -0.365908        -0.525259        -0.711576
 H         2.247894        -1.562015         1.459761
 H         2.308430        -2.030819        -0.427537
 H         5.453501         0.236841         0.331179
 H         4.979279         0.602893        -1.444090
 H         5.025680         2.207623         0.987458
 H         4.465367         2.688433        -0.664503
 H         2.627587         0.547681         1.866605
