19
Iteration:  2517charge 0 multiplicity 1
 C        -0.052515         0.004348         0.090189
 C         1.510673         0.065447         0.002920
 C         2.258196        -1.223839         0.421811
 C         3.275791        -0.081367        -0.024163
 C         4.602688         0.519528        -0.386287
 C         4.276694         1.998585         0.021473
 O         3.021298         2.115408         0.741969
 C         2.548863         0.853832         0.908971
 O         2.287904         0.278126        -1.122916
 H        -0.367501        -0.500738         1.003651
 H        -0.555013         0.936070         0.045020
 H        -0.363116        -0.584108        -0.808113
 H         2.409579        -1.759450         1.387068
 H         2.370299        -1.916810        -0.470197
 H         5.411337         0.077429         0.211972
 H         5.009730         0.486517        -1.394352
 H         4.981387         2.403674         0.666207
 H         4.277911         2.538301        -0.923917
 H         2.357086         0.442322         1.993637
