19
Iteration:   982charge 0 multiplicity 1
 C        -0.064393         0.077676        -0.064943
 C         1.387446        -0.013896         0.093954
 C         2.431532        -1.250139         0.334238
 C         3.267298        -0.072985        -0.031210
 C         4.642247         0.440458        -0.248566
 C         4.344086         2.018210        -0.019025
 O         3.020041         2.143769         0.766768
 C         2.592896         0.805810         0.982067
 O         2.132862         0.357450        -1.117975
 H        -0.793871         0.142741         0.738727
 H        -0.256240         0.865635        -0.809185
 H        -0.266237        -0.857974        -0.579073
 H         2.484947        -1.614549         1.377003
 H         2.366094        -2.078997        -0.376582
 H         5.312178        -0.270628         0.358060
 H         5.022931         0.303609        -1.238345
 H         5.181591         2.428897         0.514318
 H         4.142444         2.544959        -0.900779
 H         2.665360         0.515965         2.016518
