19
Iteration:  2222
 C        -0.076676         0.099129         0.178756
 C         1.453213         0.077061         0.127682
 C         2.352197        -1.234414         0.320477
 C         3.252042        -0.099582        -0.135694
 C         4.631020         0.579377        -0.351893
 C         4.346863         1.980875         0.106519
 O         2.917594         2.115871         0.656977
 C         2.538501         0.831863         0.880611
 O         2.364393         0.168209        -1.197539
 H        -0.452988        -0.229085         1.195395
 H        -0.492237         1.127780         0.020528
 H        -0.582506        -0.677148        -0.437095
 H         2.318821        -1.545100         1.344050
 H         2.184921        -2.162894        -0.272775
 H         5.360320         0.151408         0.371827
 H         4.907917         0.530652        -1.375340
 H         4.924228         2.231310         0.967775
 H         4.336235         2.836239        -0.669341
 H         2.544196         0.432343         2.008722
