19
Iteration:  3709charge 0 multiplicity 1
 C        -0.123542        -0.106642         0.038982
 C         1.368432         0.054270         0.009793
 C         2.352893        -1.194311         0.376472
 C         3.187670        -0.014516        -0.045454
 C         4.622844         0.462349        -0.316228
 C         4.339948         1.991101         0.062643
 O         3.111843         2.134207         0.657622
 C         2.540014         0.861699         0.972360
 O         2.307192         0.316530        -1.134456
 H        -0.348426        -0.248971         1.076455
 H        -0.619419         0.868013        -0.189255
 H        -0.564840        -0.945332        -0.550690
 H         2.471787        -1.538933         1.417007
 H         2.263300        -1.999822        -0.391568
 H         5.271713         0.004479         0.529532
 H         5.035113         0.411679        -1.382125
 H         5.058604         2.449777         0.722225
 H         4.324558         2.557968        -0.839377
 H         2.470381         0.640438         2.082343
