19
Iteration:  1236charge 0 multiplicity 1
 C        -0.052401         0.254885         0.146913
 C         1.491825        -0.016961         0.015787
 C         2.408385        -1.303312         0.238368
 C         3.322318        -0.117482         0.030922
 C         4.615159         0.532980        -0.197143
 C         4.252889         2.036324        -0.027358
 O         2.981747         2.092392         0.719556
 C         2.431823         0.812802         0.903814
 O         2.313940         0.184184        -1.171304
 H        -0.476337        -0.208159         1.073693
 H        -0.242581         1.344381         0.060282
 H        -0.595608        -0.265534        -0.680110
 H         2.486962        -1.859942         1.272710
 H         2.261978        -2.089095        -0.545720
 H         5.440449         0.294648         0.472925
 H         4.998621         0.496129        -1.249938
 H         5.006187         2.506630         0.568090
 H         4.042938         2.483976        -1.021383
 H         2.232501         0.529521         1.974022
