19
Iteration:  3225
 C        -0.004653         0.074179         0.002669
 C         1.461492        -0.048497         0.182923
 C         2.418829        -1.249753         0.315625
 C         3.227561        -0.076475        -0.083929
 C         4.551916         0.392482        -0.258061
 C         4.236834         2.047274         0.069189
 O         2.956423         2.124434         0.606382
 C         2.635985         0.866709         0.984906
 O         2.239585         0.335699        -1.147386
 H        -0.470287        -0.126380         0.966123
 H        -0.435811         1.093295        -0.211996
 H        -0.342680        -0.688937        -0.732420
 H         2.511746        -1.715912         1.334008
 H         2.097217        -1.874269        -0.573719
 H         5.320174         0.194220         0.453699
 H         5.189482         0.163481        -1.132165
 H         4.996468         2.395903         0.902908
 H         4.251520         2.547270        -0.922964
 H         2.928776         0.633803         2.042224
