19
Iteration:  3823
 C        -0.113601         0.223913        -0.024278
 C         1.378728        -0.000577         0.067489
 C         2.373715        -1.308060         0.423023
 C         3.361821        -0.148005        -0.059759
 C         4.687185         0.601797        -0.349392
 C         4.232556         2.115518         0.077295
 O         2.987570         2.028467         0.727071
 C         2.546148         0.739437         0.890513
 O         2.293588         0.185139        -1.110965
 H        -0.492926         0.199714         0.997120
 H        -0.339771         1.239105        -0.335605
 H        -0.647663        -0.516994        -0.593575
 H         2.458737        -1.516604         1.421171
 H         2.229755        -2.234368        -0.190422
 H         5.616789         0.359954         0.192665
 H         4.903875         0.645706        -1.477401
 H         4.969884         2.467143         0.751569
 H         4.246175         2.717859        -0.891521
 H         2.481934         0.575214         2.003195
