19
Iteration:  2793
 C        -0.032231         0.192836         0.047568
 C         1.545068        -0.009044         0.063597
 C         2.338037        -1.353959         0.287938
 C         3.336362        -0.124266         0.048088
 C         4.601839         0.511943        -0.395601
 C         4.164081         2.036973        -0.002346
 O         2.912973         2.088693         0.711901
 C         2.511743         0.766045         1.011930
 O         2.373798         0.316305        -1.061417
 H        -0.482553         0.007329         1.053324
 H        -0.128454         1.236877        -0.361389
 H        -0.549445        -0.474208        -0.661058
 H         2.293870        -1.934316         1.271452
 H         2.456963        -1.990683        -0.643303
 H         5.395554         0.342867         0.284746
 H         4.859088         0.459833        -1.456754
 H         5.064046         2.631355         0.406697
 H         4.035958         2.514611        -1.019490
 H         2.412356         0.529898         2.024903
