19
Iteration:  2618
 C        -0.010846         0.224843         0.007584
 C         1.486590         0.056581         0.101377
 C         2.389331        -1.343482         0.354653
 C         3.319904        -0.129901        -0.014733
 C         4.630095         0.575184        -0.288467
 C         4.147339         2.103781        -0.111729
 O         2.960189         2.059669         0.824179
 C         2.554369         0.704364         0.923290
 O         2.340249         0.225217        -1.118146
 H        -0.388759         0.159769         0.975513
 H        -0.289415         1.228163        -0.343733
 H        -0.359074        -0.527605        -0.710249
 H         2.133679        -1.826734         1.345561
 H         2.153190        -1.926011        -0.475845
 H         5.338049         0.413597         0.493709
 H         4.975575         0.309481        -1.297882
 H         4.914095         2.700265         0.124350
 H         3.624771         2.337121        -1.061230
 H         2.420071         0.326339         2.030104
