19
Iteration:  3731charge 0 multiplicity 1
 C         0.078637        -0.025476         0.134549
 C         1.470460         0.078503         0.079566
 C         2.306546        -1.205510         0.351636
 C         3.219969        -0.133906        -0.074942
 C         4.623869         0.501568        -0.245023
 C         4.391323         1.976684         0.064031
 O         2.992290         2.256826         0.754331
 C         2.483917         0.862165         0.823713
 O         2.198973         0.199462        -1.257642
 H        -0.336632        -0.418109         1.026677
 H        -0.503984         0.929741         0.081486
 H        -0.279024        -0.714922        -0.675298
 H         2.164859        -1.558388         1.402867
 H         2.186887        -1.915761        -0.505914
 H         5.353603         0.010074         0.556152
 H         4.989660         0.428309        -1.360317
 H         4.989830         2.355273         0.853405
 H         4.561430         2.577420        -0.769166
 H         2.438159         0.416606         1.868307
