19
Iteration:  4062
 C        -0.106001        -0.017843         0.038096
 C         1.455980         0.012013        -0.021680
 C         2.300896        -1.203528         0.330440
 C         3.257552        -0.054461        -0.071426
 C         4.639969         0.538165        -0.224205
 C         4.253688         2.088261         0.001463
 O         3.161452         2.140732         0.893883
 C         2.495825         0.842720         0.870836
 O         2.285961         0.201517        -1.207394
 H        -0.332068        -0.233030         1.060482
 H        -0.668608         0.908654        -0.198197
 H        -0.490116        -0.864891        -0.536736
 H         2.371375        -1.583163         1.327763
 H         2.127199        -2.081127        -0.386737
 H         5.198981         0.235322         0.596131
 H         5.007587         0.213481        -1.247443
 H         5.138042         2.527088         0.468339
 H         3.961933         2.418314        -1.020784
 H         2.483009         0.576871         1.905059
