19
Iteration:  3655charge 0 multiplicity 1
 C         0.025221         0.189765        -0.013552
 C         1.479811         0.014806         0.175149
 C         2.357293        -1.292017         0.324878
 C         3.265569        -0.117086         0.000824
 C         4.572242         0.505603        -0.264885
 C         4.160127         1.992731        -0.183058
 O         2.948539         2.100676         0.774421
 C         2.598218         0.761067         0.972260
 O         2.338281         0.286662        -1.099974
 H        -0.654818         0.230534         0.788650
 H        -0.092695         1.144791        -0.580819
 H        -0.333184        -0.618417        -0.694991
 H         2.524927        -1.639642         1.309368
 H         2.050510        -2.031686        -0.398506
 H         5.304864         0.413712         0.646796
 H         5.145127         0.182548        -1.219741
 H         4.992198         2.553120         0.253150
 H         3.826844         2.524314        -1.059382
 H         2.669322         0.435426         2.064785
