19
Iteration:  1123
 C        -0.036442         0.031004        -0.040659
 C         1.485314         0.109068         0.121838
 C         2.147291        -1.165877         0.342793
 C         3.249663        -0.112919        -0.101924
 C         4.646633         0.504283        -0.345590
 C         4.243516         2.048629        -0.060492
 O         3.022399         2.090801         0.801010
 C         2.637260         0.724048         1.001796
 O         2.331060         0.283903        -1.103944
 H        -0.384117        -0.483426         0.881234
 H        -0.487808         1.025725        -0.243712
 H        -0.317774        -0.738594        -0.782381
 H         2.162938        -1.337063         1.480882
 H         2.076649        -2.179209        -0.181511
 H         5.362711         0.124497         0.343379
 H         5.226043         0.379121        -1.159164
 H         5.084531         2.588084         0.425555
 H         3.924401         2.428890        -0.975572
 H         2.743504         0.593797         2.079929
