19
Iteration:  1884
 C        -0.063451         0.193092         0.071145
 C         1.477150        -0.001933         0.070986
 C         2.521565        -1.346041         0.391891
 C         3.302297        -0.163275        -0.064807
 C         4.517316         0.605700        -0.374758
 C         4.273998         1.981217         0.119241
 O         2.974405         2.092372         0.737336
 C         2.552024         0.808221         0.961482
 O         2.203269         0.268136        -1.241812
 H        -0.437484         0.246312         1.134989
 H        -0.428329         1.186386        -0.346923
 H        -0.591107        -0.422127        -0.614465
 H         2.516827        -1.784889         1.383945
 H         2.299650        -2.115272        -0.323007
 H         5.386224         0.208025         0.167333
 H         4.781904         0.665111        -1.466423
 H         5.006780         2.474762         0.920032
 H         4.500504         2.739927        -0.758751
 H         2.671882         0.158850         1.903659
