19
Iteration:  4011
 C        -0.101335         0.075010         0.019904
 C         1.492257        -0.053226         0.068828
 C         2.386057        -1.303900         0.237630
 C         3.264707        -0.116558        -0.038526
 C         4.702215         0.519433        -0.238855
 C         4.271977         2.005898        -0.039533
 O         2.929787         2.052370         0.587519
 C         2.523477         0.810987         1.057697
 O         2.280286         0.447286        -1.011807
 H        -0.534938         0.130013         1.006604
 H        -0.332336         1.041374        -0.415628
 H        -0.588899        -0.748252        -0.538946
 H         2.484217        -1.732096         1.242715
 H         2.439118        -2.002896        -0.614616
 H         5.378559         0.195578         0.693874
 H         5.237272         0.299016        -1.156028
 H         4.912593         2.507599         0.696585
 H         4.286776         2.312302        -1.086642
 H         2.405267         0.806039         2.186921
