19
Iteration:  3738
 C        -0.014144         0.005278         0.131816
 C         1.455244         0.034680         0.029711
 C         2.299673        -1.226443         0.376031
 C         3.259534        -0.083523        -0.075771
 C         4.678626         0.486501        -0.284649
 C         4.329645         2.001482         0.104652
 O         2.995574         2.249626         0.711959
 C         2.551562         0.815702         0.834000
 O         2.175390         0.192362        -1.224885
 H        -0.267064        -0.455908         1.113359
 H        -0.212982         1.121999         0.071743
 H        -0.473089        -0.523508        -0.756479
 H         2.202172        -1.719808         1.378910
 H         2.228358        -2.008471        -0.502419
 H         5.255835         0.210217         0.553194
 H         5.210519         0.418878        -1.153467
 H         4.968750         2.255917         1.024698
 H         4.524593         2.680732        -0.769254
 H         2.623663         0.599674         1.881927
