19
Iteration:  3367charge 0 multiplicity 1
 C        -0.054464        -0.003150        -0.019955
 C         1.429314         0.084201         0.035387
 C         2.277401        -1.263690         0.350106
 C         3.228236        -0.152569         0.015431
 C         4.667014         0.486407        -0.239571
 C         4.229046         2.018305        -0.195417
 O         3.013329         2.107033         0.774016
 C         2.592548         0.801329         1.013581
 O         2.345376         0.404927        -1.091459
 H        -0.435493        -0.286920         1.012517
 H        -0.431970         0.938210        -0.405446
 H        -0.251835        -0.800984        -0.737136
 H         2.338123        -1.688556         1.366400
 H         2.095405        -1.892505        -0.474463
 H         5.386584         0.265059         0.658839
 H         5.264235        -0.022052        -1.031092
 H         4.988651         2.793510         0.303306
 H         3.834413         2.386350        -1.176270
 H         2.569073         0.525782         2.084213
