19
Iteration:  2331charge 0 multiplicity 1
 C        -0.069906         0.068470         0.004369
 C         1.422487        -0.010232         0.082988
 C         2.307457        -1.215592         0.334298
 C         3.276091        -0.143611        -0.003918
 C         4.557204         0.561433        -0.273689
 C         4.139581         1.950602        -0.198366
 O         3.158701         2.109484         0.870704
 C         2.544652         0.819844         0.972669
 O         2.396668         0.294709        -1.096653
 H        -0.416084        -0.365543         0.957461
 H        -0.534626         1.042118         0.026393
 H        -0.367740        -0.376513        -0.914998
 H         2.484859        -1.581629         1.269495
 H         2.077630        -1.867850        -0.563335
 H         5.500013         0.491641         0.297764
 H         4.780966         0.377475        -1.297518
 H         4.980081         2.636955         0.067669
 H         3.555312         2.425113        -1.137378
 H         2.457318         0.430823         1.934053
