19
Iteration:  2576
 C         0.027453         0.230052         0.069952
 C         1.526127        -0.013797         0.106885
 C         2.382655        -1.334002         0.229036
 C         3.316671        -0.178174         0.016887
 C         4.631885         0.533588        -0.161042
 C         4.196349         2.026635        -0.220957
 O         2.884663         2.068443         0.714047
 C         2.562018         0.742092         1.014171
 O         2.261979         0.343622        -1.055439
 H        -0.618780        -0.162594         0.827935
 H        -0.121518         1.332923        -0.085971
 H        -0.325440        -0.200774        -0.838810
 H         2.666895        -1.847677         1.152165
 H         2.401760        -1.929773        -0.630073
 H         5.252661         0.198681         0.681708
 H         5.010986         0.299025        -1.180665
 H         4.805918         2.901501         0.188074
 H         3.867298         2.263673        -1.343928
 H         2.517770         0.524838         2.074142
