19
Iteration:   461
 C         0.001209        -0.051054         0.116206
 C         1.431536         0.054301        -0.059532
 C         2.288461        -1.201596         0.179679
 C         3.314350        -0.047198        -0.048174
 C         4.636519         0.428869        -0.099915
 C         4.306725         1.992844        -0.007572
 O         3.107140         2.088567         0.821760
 C         2.435168         0.810332         0.849637
 O         2.231174         0.413117        -1.182583
 H         0.043880        -0.278678         1.215777
 H        -0.530218         0.929804        -0.044573
 H        -0.493765        -0.823822        -0.492527
 H         2.353061        -1.637434         1.246320
 H         2.258351        -1.901030        -0.634601
 H         5.303225         0.159162         0.834075
 H         5.069064         0.056655        -1.043403
 H         4.909903         2.755023         0.597952
 H         3.994244         2.402637        -0.961805
 H         2.238403         0.532048         1.920591
