19
Iteration:  2156
 C        -0.078154        -0.045331         0.020272
 C         1.460664         0.083331         0.175126
 C         2.363249        -1.261286         0.314423
 C         3.283815        -0.147123        -0.061994
 C         4.658187         0.426302        -0.344435
 C         4.350441         2.033555         0.099016
 O         2.908258         2.129596         0.583324
 C         2.581777         0.858217         0.957867
 O         2.233347         0.384817        -1.059288
 H        -0.580626        -0.596293         0.892427
 H        -0.336244         1.047835        -0.117183
 H        -0.424253        -0.684111        -0.750929
 H         2.432914        -1.626639         1.350525
 H         2.075962        -2.032393        -0.370359
 H         5.660093         0.106594        -0.031568
 H         4.803112         0.429685        -1.414864
 H         4.960581         2.248929         0.897437
 H         4.469398         2.752621        -0.788047
 H         2.752776         0.808788         2.057954
