19
Iteration:  1233
 C        -0.040725         0.239792         0.160722
 C         1.465303        -0.019495         0.025016
 C         2.387640        -1.287148         0.250617
 C         3.327092        -0.126726         0.011631
 C         4.617428         0.550430        -0.196461
 C         4.234794         2.012714        -0.037312
 O         2.968072         2.106182         0.716383
 C         2.451849         0.799031         0.905014
 O         2.354959         0.190228        -1.187363
 H        -0.537040        -0.085753         1.106110
 H        -0.338960         1.309053         0.070488
 H        -0.625872        -0.257525        -0.673812
 H         2.345243        -1.798342         1.249933
 H         2.335512        -2.108757        -0.543272
 H         5.414779         0.315227         0.490961
 H         4.881871         0.509961        -1.182626
 H         5.106986         2.458933         0.598874
 H         4.114513         2.527291        -0.975818
 H         2.341196         0.412702         1.994587
