19
Iteration:  4609
 C        -0.106414         0.071948         0.033979
 C         1.451936        -0.038004         0.103634
 C         2.406980        -1.250467         0.433136
 C         3.269366        -0.075905        -0.049731
 C         4.619862         0.574934        -0.305155
 C         4.388828         2.062055         0.115919
 O         2.979157         2.136002         0.626502
 C         2.456441         0.922283         0.869705
 O         2.282938         0.086648        -1.182946
 H        -0.518480         0.203623         1.037316
 H        -0.354617         0.968090        -0.458339
 H        -0.703842        -0.658868        -0.496856
 H         2.500179        -1.711718         1.429048
 H         2.245954        -2.047075        -0.332424
 H         5.377890         0.120442         0.441408
 H         4.967396         0.681200        -1.378374
 H         5.190061         2.129466         0.919038
 H         4.560012         2.856088        -0.580988
 H         2.221186         0.741667         1.931970
