19
Iteration:  2364charge 0 multiplicity 1
 C        -0.006253         0.115921        -0.059151
 C         1.467399        -0.000129         0.186488
 C         2.378894        -1.244990         0.325339
 C         3.269627        -0.110756        -0.031347
 C         4.658764         0.531847        -0.198821
 C         4.166335         2.002805        -0.184680
 O         3.044807         2.060972         0.713713
 C         2.626152         0.746196         0.991976
 O         2.152467         0.373129        -1.020333
 H        -0.622289        -0.496355         0.601472
 H        -0.252019         1.163234        -0.041111
 H        -0.181742        -0.291332        -1.028956
 H         2.637575        -1.728522         1.224140
 H         2.143978        -2.013321        -0.478794
 H         5.317233         0.211920         0.621242
 H         5.014288         0.372985        -1.184447
 H         5.092265         2.535902         0.121195
 H         3.737909         2.440804        -1.200104
 H         2.746623         0.423596         1.957420
