19
Iteration:  2094charge 0 multiplicity 1
 C        -0.016963         0.258609         0.088414
 C         1.466275        -0.017055         0.095887
 C         2.507090        -1.295798         0.329696
 C         3.289093        -0.074683        -0.159534
 C         4.661373         0.551785        -0.175606
 C         4.154909         2.032080        -0.071533
 O         2.979823         2.013744         0.781366
 C         2.531558         0.757115         0.905819
 O         2.172579         0.219237        -1.163547
 H        -0.331170         0.357557         1.102485
 H        -0.190789         1.242130        -0.341245
 H        -0.691717        -0.343570        -0.564915
 H         2.693377        -1.758132         1.339625
 H         2.393129        -2.043603        -0.525409
 H         5.235709         0.227390         0.714725
 H         5.260268         0.511478        -1.092052
 H         4.914981         2.769455         0.415571
 H         3.916257         2.474718        -0.978113
 H         2.759774         0.334403         1.919305
