19
Iteration:   360
 C        -0.001197         0.296609         0.033201
 C         1.462657        -0.016785         0.055319
 C         2.397521        -1.302166         0.285691
 C         3.312657        -0.122930        -0.021975
 C         4.654573         0.587553        -0.214492
 C         4.165602         1.982870        -0.022107
 O         2.950940         2.057899         0.812111
 C         2.548574         0.726437         0.946075
 O         2.277781         0.241415        -1.214797
 H        -0.431059        -0.320264         0.858770
 H        -0.054852         1.382348         0.174284
 H        -0.582020         0.040766        -0.900251
 H         2.464483        -1.850709         1.217489
 H         2.396374        -1.983689        -0.623595
 H         5.290458         0.180938         0.620112
 H         5.042861         0.555467        -1.249147
 H         4.934674         2.490240         0.552514
 H         3.833775         2.547250        -0.940084
 H         2.484643         0.397054         2.026632
