19
Iteration:  1135charge 0 multiplicity 1
 C         0.002138         0.008780        -0.041917
 C         1.428341         0.065946         0.053665
 C         2.275562        -1.161013         0.385163
 C         3.262585        -0.078531        -0.016260
 C         4.599812         0.466522        -0.315199
 C         4.270834         2.059420        -0.035983
 O         3.084420         2.051500         0.772493
 C         2.620510         0.790014         1.037951
 O         2.232568         0.304712        -1.171161
 H        -0.407727        -0.115423         0.962462
 H        -0.466137         0.948150        -0.374203
 H        -0.274098        -0.786881        -0.765270
 H         2.287705        -1.522337         1.472252
 H         2.096093        -2.013528        -0.388638
 H         5.304417         0.107463         0.409256
 H         4.708176         0.310658        -1.319922
 H         4.974133         2.665567         0.531270
 H         4.153709         2.562743        -0.948285
 H         2.562422         0.385202         2.026001
