19
Iteration:  2146charge 0 multiplicity 1
 C        -0.015036         0.011349         0.081278
 C         1.489291         0.023090         0.077790
 C         2.248159        -1.273952         0.342379
 C         3.317641        -0.101737         0.005339
 C         4.643844         0.544013        -0.380112
 C         4.349498         1.993851         0.075169
 O         2.935856         2.117759         0.554675
 C         2.558328         0.782047         1.013159
 O         2.247059         0.383066        -1.088050
 H        -0.484414        -0.419038         1.010746
 H        -0.649940         0.895595        -0.160491
 H        -0.152708        -0.643551        -0.776960
 H         2.332476        -1.647701         1.397484
 H         2.226434        -2.081268        -0.401069
 H         5.409755         0.043164         0.220969
 H         4.793085         0.571191        -1.439901
 H         4.988016         2.320420         0.843208
 H         4.418455         2.713011        -0.760937
 H         2.613512         0.549550         2.051538
