19
Iteration:  1075
 C         0.003942         0.310467         0.024711
 C         1.453783        -0.156288         0.047479
 C         2.500490        -1.342558         0.242524
 C         3.212883        -0.030818        -0.000892
 C         4.606511         0.435179        -0.173828
 C         4.169869         1.883726        -0.213316
 O         2.911380         2.153800         0.736588
 C         2.584675         0.797540         1.089546
 O         2.292491         0.363635        -1.089712
 H        -0.564631        -0.227133         0.811437
 H         0.042912         1.392934         0.204406
 H        -0.592033         0.094310        -0.879753
 H         2.597060        -1.962990         1.083309
 H         2.492643        -1.938411        -0.623960
 H         5.233373         0.275478         0.710002
 H         5.311005         0.134786        -1.064740
 H         4.808840         2.617552         0.353001
 H         3.934683         2.109073        -1.326151
 H         2.608032         0.512209         2.224487
