19
Iteration:  1516charge 0 multiplicity 1
 C        -0.106760         0.148628         0.050269
 C         1.491953         0.029016         0.115638
 C         2.257793        -1.309706         0.271156
 C         3.406465        -0.189373        -0.028464
 C         4.734237         0.584075        -0.219414
 C         4.112372         2.021880        -0.091115
 O         2.993043         2.058037         0.742576
 C         2.616519         0.706690         0.891975
 O         2.279294         0.395121        -1.078589
 H        -0.432158        -0.039032         1.082777
 H        -0.269468         1.143097        -0.401278
 H        -0.417205        -0.677132        -0.570290
 H         2.199254        -1.863734         1.236157
 H         2.040795        -2.033792        -0.588395
 H         5.319536         0.278160         0.747516
 H         5.303841         0.416896        -1.205612
 H         4.856932         2.735873         0.308427
 H         3.826291         2.504284        -1.059014
 H         2.590517         0.443823         1.982094
