19
Iteration:  3576charge 0 multiplicity 1
 C         0.002536         0.210792        -0.012437
 C         1.465739        -0.041891         0.176788
 C         2.412220        -1.281522         0.361353
 C         3.333784        -0.126276         0.020597
 C         4.673321         0.556139        -0.196070
 C         4.256043         2.021228        -0.212939
 O         2.948289         1.995530         0.616968
 C         2.511082         0.722093         1.011260
 O         2.188329         0.375930        -1.060955
 H        -0.740263        -0.101305         0.734146
 H        -0.191184         1.301503        -0.172691
 H        -0.310558        -0.202003        -1.001608
 H         2.334721        -1.780394         1.322081
 H         2.265288        -2.037252        -0.451514
 H         5.542855         0.363158         0.665148
 H         5.202201         0.333579        -1.152088
 H         4.974190         2.563890         0.399457
 H         4.017507         2.469868        -1.142703
 H         2.384072         0.467830         2.157278
