19
Iteration:    48
 C        -0.029636         0.276099         0.197922
 C         1.469764         0.072158         0.041916
 C         2.483098        -1.294650         0.170917
 C         3.282665        -0.099629        -0.040197
 C         4.736604         0.483932        -0.081548
 C         4.159782         1.967952        -0.024009
 O         2.911118         2.067785         0.680142
 C         2.482177         0.756506         0.979934
 O         2.270806         0.244701        -1.276755
 H        -0.219756         0.236961         1.320406
 H        -0.475804         1.218287        -0.200899
 H        -0.622330        -0.612309        -0.251632
 H         2.608018        -1.762977         1.204276
 H         2.326039        -2.063649        -0.599398
 H         5.434885         0.162318         0.849819
 H         5.222911         0.418574        -1.047020
 H         4.899898         2.712284         0.343293
 H         3.960151         2.262558        -1.043963
 H         2.463029         0.529818         2.056811
