19
Iteration:  2617charge 0 multiplicity 1
 C        -0.013279         0.226791         0.013265
 C         1.483520         0.061341         0.096362
 C         2.387598        -1.340982         0.347466
 C         3.323402        -0.146243        -0.016963
 C         4.626084         0.579949        -0.284936
 C         4.140884         2.102472        -0.116862
 O         2.955649         2.058854         0.819002
 C         2.559160         0.706139         0.930031
 O         2.350243         0.230242        -1.113503
 H        -0.383607         0.169627         0.995898
 H        -0.287175         1.226479        -0.330818
 H        -0.345834        -0.541577        -0.745677
 H         2.147608        -1.839783         1.363885
 H         2.139447        -1.951877        -0.480550
 H         5.360363         0.394351         0.475313
 H         4.970308         0.313332        -1.300500
 H         4.916916         2.712724         0.128696
 H         3.636170         2.311526        -1.037588
 H         2.393620         0.355437         2.063175
