19
Iteration:   321
 C        -0.114965         0.002213         0.074544
 C         1.421526         0.056508         0.094125
 C         2.340047        -1.243352         0.176660
 C         3.310322        -0.075359        -0.096365
 C         4.726112         0.481367        -0.080006
 C         4.226915         1.897662        -0.082266
 O         2.965952         2.092110         0.710362
 C         2.564426         0.805942         0.979998
 O         2.295374         0.462577        -1.123158
 H        -0.458510        -0.557399         0.940592
 H        -0.674953         0.968480         0.109242
 H        -0.469855        -0.349151        -0.878677
 H         2.432042        -1.821539         1.130516
 H         2.140386        -1.810614        -0.736270
 H         5.349775         0.364000         0.827613
 H         5.405208         0.351342        -0.913418
 H         5.037832         2.450906         0.492763
 H         4.121818         2.106475        -1.137439
 H         2.764520         0.383543         2.002956
