19
Iteration:  4741charge 0 multiplicity 1
 C        -0.009962         0.051909        -0.189162
 C         1.479282         0.032144         0.110617
 C         2.267290        -1.251225         0.492191
 C         3.221531        -0.079219         0.000511
 C         4.679720         0.614639        -0.343837
 C         4.160458         2.079294        -0.140934
 O         3.111664         2.053362         0.814027
 C         2.538392         0.842536         1.027214
 O         2.318444         0.182632        -1.057283
 H        -0.655669        -0.127744         0.630722
 H        -0.360196         0.910395        -0.665213
 H        -0.237978        -0.755081        -0.821180
 H         2.116196        -1.454966         1.505280
 H         2.047018        -2.011154        -0.308761
 H         5.507201         0.190191         0.338962
 H         5.088144         0.308699        -1.315973
 H         4.998777         2.759508         0.131346
 H         3.704266         2.330186        -1.118919
 H         2.401878         0.644187         2.082297
