19
Iteration:   967
 C        -0.048482        -0.020297        -0.093305
 C         1.476911         0.021063         0.198312
 C         2.256877        -1.295144         0.287007
 C         3.201508        -0.104585        -0.153112
 C         4.639616         0.533028        -0.255473
 C         4.310866         1.984211         0.027581
 O         3.080168         2.116518         0.665007
 C         2.561764         0.830134         0.999933
 O         2.236479         0.386215        -1.023845
 H        -0.547440         0.066500         0.919571
 H        -0.314797         0.897547        -0.666575
 H        -0.460649        -0.912141        -0.642875
 H         2.479329        -1.713995         1.410219
 H         1.950715        -2.020277        -0.525764
 H         5.273335         0.273949         0.589138
 H         5.266879         0.343305        -1.215134
 H         5.039483         2.530514         0.689610
 H         4.324225         2.435828        -1.007470
 H         2.656611         0.730314         2.094962
