19
Iteration:  3365charge 0 multiplicity 1
 C        -0.044318        -0.016589        -0.018087
 C         1.445057         0.097932         0.034462
 C         2.253593        -1.278339         0.354688
 C         3.240859        -0.129147         0.016488
 C         4.675351         0.483275        -0.226425
 C         4.239275         2.001544        -0.200769
 O         3.000334         2.106141         0.778356
 C         2.590955         0.816215         1.011521
 O         2.339699         0.409973        -1.086054
 H        -0.359170        -0.272845         0.972415
 H        -0.460719         0.941419        -0.419139
 H        -0.265945        -0.838577        -0.722116
 H         2.275880        -1.672511         1.330775
 H         2.108807        -1.862986        -0.566103
 H         5.447612         0.262932         0.611195
 H         5.265588        -0.005166        -1.123660
 H         4.911931         2.736492         0.268810
 H         3.782117         2.308372        -1.189406
 H         2.570018         0.506465         2.136648
