19
Iteration:   845charge 0 multiplicity 1
 C        -0.005195         0.202942        -0.137108
 C         1.443039        -0.000502         0.024942
 C         2.412446        -1.332292         0.297188
 C         3.243279        -0.125793         0.121247
 C         4.543828         0.528208        -0.308584
 C         4.170948         1.965355        -0.160001
 O         3.019518         2.079152         0.843897
 C         2.547697         0.785573         1.016460
 O         2.364746         0.371824        -0.992741
 H        -0.323856        -0.213050         0.835081
 H        -0.066356         1.304438        -0.301384
 H        -0.514522        -0.334047        -1.003509
 H         2.368825        -2.044185         1.218384
 H         2.362975        -1.948036        -0.698657
 H         5.415843         0.144091         0.167345
 H         4.813809         0.266896        -1.385218
 H         4.889149         2.584064         0.361969
 H         3.672033         2.351845        -1.048105
 H         2.489121         0.446416         2.034889
