19
Iteration:  1678
 C         0.010711         0.043708         0.124345
 C         1.435714         0.100633         0.120166
 C         2.262345        -1.238628         0.316080
 C         3.244996        -0.155616        -0.070748
 C         4.656267         0.518506        -0.256405
 C         4.248728         2.070120        -0.028081
 O         3.026967         2.021927         0.759962
 C         2.554029         0.756745         0.899853
 O         2.334608         0.383673        -1.217858
 H        -0.433745        -0.395496         1.084831
 H        -0.655137         0.941463        -0.121240
 H        -0.275384        -0.761886        -0.591653
 H         2.446771        -1.648303         1.386714
 H         2.016785        -2.047031        -0.470154
 H         5.292610         0.053999         0.560684
 H         5.042433         0.274932        -1.298780
 H         4.970137         2.838389         0.422446
 H         3.894624         2.655685        -0.902925
 H         2.491832         0.509269         2.024850
