19
Iteration:  3061
 C        -0.001852         0.117639         0.048868
 C         1.479773         0.053842         0.102106
 C         2.247420        -1.301420         0.330319
 C         3.307834        -0.209510        -0.020416
 C         4.600867         0.547353        -0.257470
 C         4.136248         2.056149        -0.154428
 O         3.035524         2.120219         0.832824
 C         2.558815         0.723996         0.898866
 O         2.372382         0.294654        -1.128736
 H        -0.415210        -0.033616         1.023314
 H        -0.162728         1.249197        -0.083536
 H        -0.480605        -0.467289        -0.830243
 H         2.232356        -1.703909         1.421193
 H         2.111084        -2.059849        -0.511794
 H         5.447298         0.441513         0.459172
 H         5.185556         0.392542        -1.224356
 H         4.865592         2.797268         0.265650
 H         3.716534         2.460121        -1.087883
 H         2.552827         0.477875         1.967198
