19
Iteration:  2776charge 0 multiplicity 1
 C         0.011245         0.248453         0.039583
 C         1.446172        -0.042388         0.133639
 C         2.322775        -1.304772         0.305725
 C         3.333229        -0.131713        -0.067632
 C         4.688472         0.622217        -0.246666
 C         4.207343         2.088741         0.010263
 O         2.887496         2.076924         0.720778
 C         2.570868         0.726805         0.923863
 O         2.310083         0.199193        -1.168895
 H        -0.407319        -0.092033         1.025141
 H        -0.206587         1.284319        -0.008629
 H        -0.525237        -0.309921        -0.712871
 H         2.467126        -1.673405         1.294012
 H         2.079516        -2.222964        -0.253670
 H         5.640987         0.096684         0.116154
 H         4.700551         0.438490        -1.336437
 H         4.801384         2.504917         0.744118
 H         4.142358         2.649860        -0.940513
 H         2.707598         0.467279         2.088920
