19
Iteration:   562charge 0 multiplicity 1
 C         0.040690         0.313814        -0.060645
 C         1.489396        -0.014950         0.074309
 C         2.217601        -1.447508         0.296183
 C         3.357961        -0.140363        -0.025803
 C         4.635850         0.642940        -0.333988
 C         4.219256         2.140828        -0.022756
 O         2.933683         2.045277         0.854151
 C         2.578281         0.653566         1.017130
 O         2.305524         0.201732        -1.128617
 H        -0.485030         0.125165         0.883124
 H        -0.053102         1.386040        -0.266589
 H        -0.357707        -0.313502        -0.875500
 H         2.299575        -1.793285         1.322558
 H         1.797454        -2.188516        -0.426578
 H         5.554956         0.407062         0.185649
 H         4.984731         0.715054        -1.418332
 H         4.939045         2.826996         0.522398
 H         3.896713         2.669012        -0.933380
 H         2.652331         0.474480         2.105633
