19
Iteration:  3966
 C         0.034951         0.293447        -0.056369
 C         1.517629        -0.032365         0.069362
 C         2.361968        -1.343400         0.451614
 C         3.296092        -0.132381        -0.042288
 C         4.630401         0.654170        -0.345046
 C         4.216220         2.071463         0.002544
 O         2.878958         2.071195         0.767180
 C         2.541283         0.704791         0.944376
 O         2.306566         0.153606        -1.161139
 H        -0.437761        -0.032050         0.798321
 H        -0.074861         1.382859        -0.005415
 H        -0.438514        -0.165316        -0.924353
 H         2.480716        -1.534437         1.487841
 H         2.012058        -2.247857        -0.168087
 H         5.425710         0.252746         0.416461
 H         5.052092         0.582502        -1.402580
 H         4.937947         2.474068         0.649985
 H         3.899492         2.750618        -0.827690
 H         2.515117         0.394787         2.020791
