19
Iteration:  4351
 C        -0.027166         0.031978         0.038446
 C         1.465030         0.056584         0.127523
 C         2.244200        -1.250357         0.245705
 C         3.273562        -0.110214         0.024217
 C         4.667781         0.477306        -0.264527
 C         4.251768         2.027569         0.021522
 O         2.879048         2.108564         0.554624
 C         2.588601         0.906307         1.051396
 O         2.352874         0.266018        -1.108362
 H        -0.251651        -0.182812         1.057496
 H        -0.287579         0.963931        -0.362884
 H        -0.125266        -0.781885        -0.611267
 H         2.378511        -1.724127         1.227653
 H         2.221212        -2.080077        -0.520351
 H         5.409078         0.109404         0.445077
 H         4.899375         0.182573        -1.233233
 H         4.999909         2.539001         0.709989
 H         4.241227         2.657913        -0.893539
 H         2.756592         0.708666         2.139970
