19
Iteration:  4760
 C        -0.021729         0.098664        -0.137418
 C         1.447781        -0.063713         0.139812
 C         2.357664        -1.323121         0.375395
 C         3.310278        -0.143459         0.097231
 C         4.541363         0.534653        -0.214920
 C         4.215803         2.084951        -0.185654
 O         3.054396         2.211706         0.754405
 C         2.549874         0.853672         0.963439
 O         2.246906         0.229995        -1.092586
 H        -0.662047         0.140565         0.785244
 H        -0.170835         1.076075        -0.592838
 H        -0.448490        -0.769213        -0.739740
 H         2.569362        -1.800138         1.366269
 H         2.500985        -1.979221        -0.510065
 H         5.256577         0.216792         0.626385
 H         4.957386         0.171849        -1.183953
 H         5.100874         2.501047         0.437487
 H         4.185419         2.391946        -1.227393
 H         2.598513         0.539622         2.035344
