19
Iteration:  3166charge 0 multiplicity 1
 C        -0.034581         0.032110         0.099313
 C         1.485138         0.012250         0.080085
 C         2.340184        -1.237748         0.282693
 C         3.229655        -0.080354        -0.053376
 C         4.574457         0.493403        -0.280541
 C         4.355792         1.968310        -0.080018
 O         2.971223         2.128788         0.804749
 C         2.456794         0.881863         0.964245
 O         2.367691         0.301771        -1.154938
 H        -0.405661        -0.262657         1.112878
 H        -0.439595         0.956667        -0.261239
 H        -0.328067        -0.778323        -0.564384
 H         2.300430        -1.614453         1.281139
 H         2.204000        -1.992547        -0.408907
 H         5.269508         0.135727         0.509298
 H         4.805046         0.374578        -1.330719
 H         5.157549         2.506407         0.356782
 H         4.197639         2.440015        -1.117551
 H         2.453556         0.564876         1.913728
