19
Iteration:  3735
 C         0.029959        -0.010655         0.125864
 C         1.456322         0.058557         0.051451
 C         2.302452        -1.223039         0.367508
 C         3.235846        -0.110814        -0.070162
 C         4.662455         0.491372        -0.265437
 C         4.353084         1.983443         0.087498
 O         2.994251         2.264396         0.735304
 C         2.526534         0.825385         0.819078
 O         2.181650         0.194328        -1.241201
 H        -0.313033        -0.461192         1.123183
 H        -0.278293         1.016468         0.082661
 H        -0.366077        -0.562896        -0.674648
 H         2.154388        -1.635533         1.326276
 H         2.241345        -1.870847        -0.427161
 H         5.267400         0.164042         0.558777
 H         5.150648         0.443493        -1.308899
 H         4.928456         2.287045         0.986541
 H         4.576102         2.669090        -0.831495
 H         2.543835         0.495907         1.895285
