19
Iteration:  1395charge 0 multiplicity 1
 C        -0.132273         0.244816         0.123664
 C         1.485554        -0.054279         0.059974
 C         2.451364        -1.338435         0.227820
 C         3.322532        -0.109304         0.064813
 C         4.633009         0.507920        -0.364308
 C         4.179498         1.976518         0.064546
 O         2.957208         2.077214         0.630882
 C         2.494474         0.782345         0.991507
 O         2.364641         0.330141        -1.142362
 H        -0.361442         0.026450         1.151445
 H        -0.270808         1.254157        -0.136793
 H        -0.626097        -0.429653        -0.562256
 H         2.468044        -1.706764         1.226709
 H         2.415508        -2.101694        -0.650828
 H         5.478038         0.176289         0.393591
 H         4.733061         0.371239        -1.396490
 H         4.752100         2.434106         0.912945
 H         4.169100         2.615433        -0.766605
 H         2.409389         0.777039         2.025196
