19
Iteration:  4298charge 0 multiplicity 1
 C        -0.016101         0.211842         0.170053
 C         1.475321        -0.037509         0.069669
 C         2.452103        -1.196690         0.412435
 C         3.287640        -0.083272        -0.151203
 C         4.567129         0.558750        -0.182377
 C         4.276299         2.032331         0.157719
 O         2.926125         2.141432         0.585653
 C         2.522605         0.790054         0.820361
 O         2.220914         0.092037        -1.281514
 H        -0.298856        -0.259497         1.075863
 H        -0.076139         1.277011         0.243202
 H        -0.441262        -0.145881        -0.720074
 H         2.542318        -1.609767         1.414811
 H         2.469869        -2.095625        -0.314288
 H         5.088963         0.011352         0.739699
 H         5.172844         0.343264        -1.123870
 H         4.874821         2.205710         1.087173
 H         4.417518         2.742183        -0.691408
 H         2.632583         0.539224         1.879673
