19
Iteration:  1575
 C        -0.049869         0.327547         0.018754
 C         1.477237        -0.002694         0.065548
 C         2.389109        -1.364543         0.335525
 C         3.347655        -0.105820         0.014888
 C         4.659714         0.632370        -0.343356
 C         4.172268         2.086823        -0.105584
 O         2.956953         1.991030         0.809197
 C         2.540423         0.651409         1.016241
 O         2.312383         0.247536        -1.140249
 H        -0.480870         0.131802         1.002279
 H        -0.339664         1.366983        -0.180690
 H        -0.610383        -0.345681        -0.673503
 H         2.308520        -1.782525         1.339094
 H         2.328597        -2.059023        -0.465690
 H         5.461941         0.139014         0.175193
 H         4.929082         0.374296        -1.361811
 H         4.907494         2.701489         0.491239
 H         3.774245         2.588162        -1.059048
 H         2.501545         0.413277         2.043922
