19
Iteration:  1787charge 0 multiplicity 1
 C        -0.043013         0.122269         0.106091
 C         1.448667         0.085894         0.024357
 C         2.406446        -1.331299         0.195689
 C         3.255831        -0.094118        -0.053571
 C         4.615398         0.457718        -0.234392
 C         4.107138         2.105342        -0.132576
 O         3.084380         2.116527         0.832503
 C         2.536889         0.799971         1.018294
 O         2.345730         0.260999        -1.116107
 H        -0.261880        -0.366706         1.104901
 H        -0.364793         1.210887         0.200478
 H        -0.518456        -0.313306        -0.756483
 H         2.236308        -1.949470         1.068424
 H         2.281145        -1.887510        -0.709829
 H         5.193360        -0.056791         0.534898
 H         5.101812         0.111764        -1.196521
 H         4.985807         2.705843         0.315671
 H         3.687384         2.305231        -1.130424
 H         2.380397         0.507243         2.057636
