19
Iteration:  2333
 C        -0.072008         0.057503         0.004541
 C         1.434906        -0.001273         0.081781
 C         2.308441        -1.237477         0.335432
 C         3.269908        -0.134072        -0.003469
 C         4.579778         0.553215        -0.273567
 C         4.131106         1.969833        -0.222181
 O         3.158788         2.121635         0.873153
 C         2.540705         0.823141         0.992876
 O         2.387228         0.298143        -1.101024
 H        -0.471292        -0.362058         0.936813
 H        -0.470533         1.070370         0.046924
 H        -0.394035        -0.384780        -1.007472
 H         2.462622        -1.645281         1.272059
 H         2.061078        -1.884403        -0.569952
 H         5.480468         0.401315         0.371026
 H         4.788922         0.386753        -1.332682
 H         5.031508         2.560283         0.045496
 H         3.563199         2.437610        -1.109641
 H         2.432301         0.385912         2.052548
