19
Iteration:  2734charge 0 multiplicity 1
 C        -0.019940         0.175508         0.097692
 C         1.469983        -0.039718         0.124896
 C         2.455243        -1.326549         0.324939
 C         3.234630        -0.011125        -0.128836
 C         4.648687         0.500756        -0.176711
 C         4.349031         2.027938         0.100628
 O         2.902896         2.134005         0.621994
 C         2.525599         0.772548         0.864355
 O         2.179926         0.212454        -1.179039
 H        -0.538047        -0.278559         0.940729
 H        -0.303311         1.215429         0.222541
 H        -0.414955        -0.201934        -0.887603
 H         2.757014        -1.687326         1.309464
 H         2.425777        -2.012059        -0.457668
 H         5.421065         0.135747         0.553035
 H         5.015036         0.495039        -1.236853
 H         4.974387         2.588828         0.928859
 H         4.186615         2.560226        -0.787015
 H         2.707813         0.498031         1.870613
