19
Iteration:  2438
 C        -0.032171         0.161109         0.179131
 C         1.463065        -0.036928         0.072142
 C         2.379937        -1.262602         0.321028
 C         3.262405        -0.121072        -0.153298
 C         4.620064         0.556606        -0.287643
 C         4.274041         2.063937         0.103705
 O         2.937206         2.145598         0.662321
 C         2.540472         0.769281         0.840918
 O         2.297877         0.208891        -1.150598
 H        -0.167790         0.169316         1.306109
 H        -0.223734         1.146992        -0.306517
 H        -0.695661        -0.589196        -0.148389
 H         2.359212        -1.698342         1.364519
 H         2.162883        -2.095401        -0.477417
 H         5.333861         0.104542         0.447670
 H         4.961360         0.324164        -1.304505
 H         4.845469         2.502892         0.897208
 H         4.404614         2.661697        -0.773432
 H         2.686278         0.290221         1.920020
