19
Iteration:  2180charge 0 multiplicity 1
 C        -0.046397         0.022807         0.056664
 C         1.454128        -0.049188         0.152139
 C         2.433316        -1.255075         0.349067
 C         3.190915         0.016034        -0.081196
 C         4.540374         0.549513        -0.349100
 C         4.431501         1.964620         0.095070
 O         3.005520         2.166748         0.579954
 C         2.523489         0.841537         0.988626
 O         2.147415         0.276474        -1.096705
 H        -0.665496        -0.643301         0.658455
 H        -0.320712         1.056896        -0.180982
 H        -0.160852        -0.629411        -0.871896
 H         2.592332        -1.697551         1.395902
 H         2.478350        -2.078810        -0.485919
 H         5.251803        -0.030366         0.289781
 H         5.065883         0.456356        -1.272231
 H         5.120242         2.112628         0.895951
 H         4.639049         2.640540        -0.666927
 H         2.737328         0.699058         2.003050
