19
Iteration:   990charge 0 multiplicity 1
 C        -0.076859         0.101188        -0.081930
 C         1.441967         0.013842         0.060565
 C         2.498189        -1.237876         0.356924
 C         3.217232        -0.021971         0.027990
 C         4.634997         0.440860        -0.280677
 C         4.345621         1.990751        -0.038073
 O         3.012917         2.110835         0.825130
 C         2.547948         0.791865         0.956569
 O         2.134855         0.313070        -1.154301
 H        -0.649712         0.224226         0.906410
 H        -0.305888         0.950592        -0.783922
 H        -0.468529        -0.810792        -0.600338
 H         2.619546        -1.621912         1.517420
 H         2.319507        -1.953955        -0.446411
 H         5.453520         0.038684         0.400424
 H         4.813286         0.066420        -1.325680
 H         5.065506         2.479482         0.647342
 H         4.265711         2.499904        -0.997647
 H         2.732559         0.458105         1.971279
