19
Iteration:  1924
 C         0.001304         0.184474         0.131865
 C         1.467433        -0.047967         0.154664
 C         2.357881        -1.396394         0.241943
 C         3.294309        -0.118094        -0.083941
 C         4.622548         0.622511        -0.307670
 C         4.321153         2.022210         0.180888
 O         2.905303         2.105825         0.553585
 C         2.616544         0.756589         0.954973
 O         2.176687         0.304140        -1.139320
 H        -0.425720         0.232802         1.148613
 H        -0.264601         1.106925        -0.434331
 H        -0.595832        -0.658402        -0.408603
 H         2.531060        -1.936170         1.248606
 H         2.205287        -2.090591        -0.688229
 H         5.485704         0.163524         0.249529
 H         5.044882         0.503519        -1.319376
 H         4.998915         2.290237         0.932630
 H         4.252221         2.799293        -0.623438
 H         2.798904         0.800210         2.022517
