19
Iteration:  4723
 C        -0.049048         0.028689        -0.186696
 C         1.466270         0.103064         0.059525
 C         2.267300        -1.189489         0.548872
 C         3.347365        -0.154641         0.006341
 C         4.630613         0.472623        -0.310776
 C         4.069789         2.009656        -0.192838
 O         3.074066         2.135441         0.929188
 C         2.563955         0.776039         0.950709
 O         2.377752         0.269292        -1.123532
 H        -0.515509        -0.314483         0.784884
 H        -0.424359         1.085084        -0.591867
 H        -0.179735        -0.668599        -1.081015
 H         2.462252        -1.413768         1.657548
 H         1.988201        -2.137636         0.058258
 H         5.557201         0.406681         0.200488
 H         4.965893         0.360876        -1.350645
 H         4.821700         2.736337        -0.018704
 H         3.469074         2.435558        -1.032911
 H         2.602524         0.534912         2.026850
