19
Iteration:  4430
 C         0.021664         0.093372        -0.141672
 C         1.482424         0.037568         0.088142
 C         2.297191        -1.288522         0.451213
 C         3.311505        -0.114785         0.000625
 C         4.608091         0.588914        -0.283956
 C         4.096793         2.061117        -0.222550
 O         3.082377         2.050734         0.814918
 C         2.515977         0.765566         1.075200
 O         2.351167         0.300910        -1.075294
 H        -0.558067        -0.100627         0.715790
 H        -0.202746         1.089274        -0.558718
 H        -0.176913        -0.691583        -0.823703
 H         2.300850        -1.668081         1.481340
 H         1.915636        -1.906463        -0.419715
 H         5.308691         0.342849         0.573497
 H         5.038793         0.069922        -1.220769
 H         4.919399         2.828597        -0.034746
 H         3.697958         2.198570        -1.246971
 H         2.348054         0.545873         2.140341
