19
Iteration:  4428
 C         0.002483         0.089826        -0.159017
 C         1.479391         0.038006         0.114768
 C         2.291458        -1.302767         0.449866
 C         3.311310        -0.121616        -0.012599
 C         4.619807         0.571442        -0.272572
 C         4.088262         2.074551        -0.220529
 O         3.114492         2.068000         0.828753
 C         2.518638         0.779907         1.067421
 O         2.335393         0.283379        -1.088024
 H        -0.552020        -0.111173         0.765007
 H        -0.156011         1.085893        -0.587514
 H        -0.133979        -0.730717        -0.843167
 H         2.270017        -1.675555         1.451623
 H         1.929910        -1.946359        -0.434985
 H         5.305330         0.393186         0.541579
 H         5.025128         0.192253        -1.181610
 H         4.892328         2.880127        -0.034402
 H         3.694798         2.234702        -1.241145
 H         2.322429         0.555620         2.149444
