19
Iteration:   897
 C        -0.053824         0.301457         0.026703
 C         1.466337        -0.033606         0.084024
 C         2.354962        -1.318523         0.260980
 C         3.322245        -0.112553        -0.090020
 C         4.653198         0.567646        -0.113382
 C         4.136264         2.057885        -0.064971
 O         3.015384         2.059541         0.747280
 C         2.633134         0.737004         0.980002
 O         2.232207         0.193201        -1.192189
 H        -0.562954        -0.270964         0.777159
 H        -0.121104         1.379982         0.146429
 H        -0.418029         0.047387        -0.964462
 H         2.421093        -1.693169         1.271961
 H         2.124014        -2.182568        -0.429967
 H         5.170345         0.287038         0.846119
 H         5.354858         0.473247        -0.909808
 H         4.894157         2.735459         0.434104
 H         3.803915         2.469666        -1.068313
 H         2.747994         0.363931         2.046041
