19
Iteration:   282charge 0 multiplicity 1
 C        -0.045213         0.005745        -0.066491
 C         1.462336        -0.001125         0.035498
 C         2.327776        -1.296497         0.225152
 C         3.251158        -0.080622         0.035624
 C         4.597988         0.527443        -0.336730
 C         4.269445         1.932756        -0.019956
 O         3.047641         2.179449         0.836928
 C         2.525073         0.839547         0.999182
 O         2.298343         0.356443        -1.063615
 H        -0.519433        -0.138615         0.932420
 H        -0.346409         1.016867        -0.389405
 H        -0.336004        -0.796632        -0.782321
 H         2.298295        -1.644793         1.283533
 H         2.123844        -2.066177        -0.489195
 H         5.393005         0.137354         0.292177
 H         4.929527         0.301205        -1.407573
 H         5.051391         2.336583         0.522887
 H         4.086015         2.678875        -0.797104
 H         2.646885         0.532719         2.034900
