19
Iteration:  4631
 C        -0.039992         0.166548         0.176142
 C         1.405612        -0.051893        -0.023055
 C         2.334016        -1.318651         0.359984
 C         3.279580        -0.136469         0.010307
 C         4.663666         0.539391        -0.168400
 C         4.294012         2.067344         0.118405
 O         2.896268         2.200474         0.537742
 C         2.513754         0.862996         0.887361
 O         2.357012         0.154750        -1.234450
 H        -0.206575        -0.040216         1.233078
 H        -0.334300         1.129220        -0.077767
 H        -0.594116        -0.476692        -0.483722
 H         2.339250        -1.797171         1.347944
 H         2.448080        -2.211892        -0.311230
 H         5.481075         0.167735         0.586272
 H         5.024890         0.406865        -1.253017
 H         5.103164         2.617815         0.746554
 H         4.282499         2.537351        -0.845713
 H         2.514873         0.484924         1.898158
