19
Iteration:  1868
 C        -0.049966         0.156640         0.066758
 C         1.437759        -0.002085         0.027656
 C         2.418599        -1.336126         0.301195
 C         3.264026        -0.091086         0.004990
 C         4.608273         0.548595        -0.409745
 C         4.318676         2.065870         0.072060
 O         2.997938         2.098888         0.743954
 C         2.472548         0.763408         0.934678
 O         2.257823         0.272455        -1.098581
 H        -0.332006        -0.120740         1.068526
 H        -0.239050         1.192399        -0.131766
 H        -0.521736        -0.612615        -0.647443
 H         2.587409        -1.709579         1.359699
 H         2.484617        -2.157660        -0.496412
 H         5.494978         0.043321         0.067346
 H         4.547971         0.404803        -1.465593
 H         5.151643         2.372805         0.657423
 H         4.243946         2.780375        -0.709645
 H         2.372090         0.655517         2.035799
