19
Iteration:  1314
 C        -0.026031         0.042796        -0.030574
 C         1.458271        -0.001420         0.058402
 C         2.318475        -1.199049         0.195598
 C         3.298661        -0.128465         0.121390
 C         4.529581         0.502093        -0.261778
 C         4.173818         1.973137        -0.122312
 O         3.113832         2.110484         0.828396
 C         2.509632         0.833760         1.041731
 O         2.339818         0.326234        -1.144341
 H        -0.313157        -0.274895         1.020245
 H        -0.129625         1.163471        -0.100625
 H        -0.554338        -0.582977        -0.772014
 H         2.394254        -1.643156         1.332136
 H         2.405479        -1.960809        -0.584954
 H         5.443388         0.270846         0.303153
 H         4.936477         0.246904        -1.334305
 H         4.970120         2.597660         0.208869
 H         3.769420         2.394418        -1.117490
 H         2.199360         0.580898         2.110930
