19
Iteration:  2773charge 0 multiplicity 1
 C         0.010697         0.257388         0.037624
 C         1.478875        -0.036739         0.149819
 C         2.299711        -1.307026         0.336012
 C         3.328394        -0.083591        -0.102730
 C         4.676730         0.628672        -0.249868
 C         4.212406         2.093754         0.036019
 O         2.886979         2.043692         0.716585
 C         2.575279         0.728869         0.899704
 O         2.291586         0.179221        -1.176852
 H        -0.391114        -0.194116         1.022148
 H        -0.192477         1.344297        -0.007964
 H        -0.522194        -0.274714        -0.701519
 H         2.496080        -1.712965         1.381550
 H         2.158070        -2.292875        -0.299719
 H         5.523989         0.161396         0.244196
 H         4.767688         0.435129        -1.296390
 H         4.897311         2.542080         0.736711
 H         4.246051         2.687524        -0.963403
 H         2.695092         0.410407         2.000472
