19
Iteration:  3830charge 0 multiplicity 1
 C        -0.119452         0.181352        -0.036338
 C         1.456521         0.012970         0.025527
 C         2.383535        -1.263545         0.406715
 C         3.303516        -0.134590        -0.093609
 C         4.715066         0.565875        -0.343677
 C         4.270095         2.145320         0.048383
 O         2.998922         2.072419         0.761571
 C         2.513412         0.719427         0.969194
 O         2.243277         0.169038        -1.135383
 H        -0.520129         0.216919         1.019588
 H        -0.345056         1.185226        -0.378185
 H        -0.748817        -0.511644        -0.578426
 H         2.531381        -1.508354         1.547619
 H         2.392104        -2.181963        -0.088261
 H         5.447319         0.157851         0.392941
 H         4.951778         0.480893        -1.472762
 H         5.123745         2.492077         0.667725
 H         4.052805         2.727945        -0.828644
 H         2.491081         0.402502         2.015838
