19
Iteration:  2626charge 0 multiplicity 1
 C         0.025806         0.222323        -0.024152
 C         1.495102        -0.015579         0.099276
 C         2.362617        -1.312645         0.369481
 C         3.297303        -0.043997        -0.025399
 C         4.639845         0.563623        -0.286636
 C         4.131294         2.064972        -0.123942
 O         3.016709         2.069334         0.860548
 C         2.520784         0.744397         0.934495
 O         2.267583         0.192890        -1.151384
 H        -0.501114         0.056184         0.949911
 H        -0.210137         1.196101        -0.448635
 H        -0.574682        -0.594036        -0.612112
 H         2.325778        -1.820254         1.434354
 H         2.289855        -1.990470        -0.509722
 H         5.317401         0.362117         0.559308
 H         5.134987         0.347670        -1.258476
 H         4.930400         2.773045         0.296921
 H         3.843569         2.547648        -1.017001
 H         2.747120         0.298062         1.979859
