19
Iteration:   457charge 0 multiplicity 1
 C         0.012882        -0.020147         0.075226
 C         1.422074         0.058437        -0.035221
 C         2.317604        -1.200333         0.179931
 C         3.250977        -0.032712        -0.059260
 C         4.651710         0.419012        -0.091099
 C         4.321714         2.031223        -0.035145
 O         3.094481         2.058382         0.836107
 C         2.439369         0.768078         0.883875
 O         2.228166         0.404024        -1.168369
 H         0.148036        -0.197927         1.159794
 H        -0.522124         0.893093        -0.144879
 H        -0.596697        -0.818433        -0.419157
 H         2.364159        -1.469533         1.204447
 H         2.504756        -1.989211        -0.621712
 H         5.269756         0.230200         0.784031
 H         4.932643         0.088831        -1.089458
 H         4.894891         2.648605         0.563772
 H         4.086904         2.387027        -1.078936
 H         2.284354         0.603551         1.969785
