19
Iteration:   245charge 0 multiplicity 1
 C         0.026758         0.253246        -0.103650
 C         1.467250        -0.010007         0.122822
 C         2.356542        -1.343325         0.370444
 C         3.304658        -0.121350        -0.159297
 C         4.631082         0.674701        -0.347594
 C         4.215096         2.063099         0.086759
 O         3.000179         2.078414         0.836248
 C         2.587093         0.713322         0.922346
 O         2.159884         0.172847        -1.112732
 H        -0.649686         0.230174         0.775994
 H        -0.000807         1.183902        -0.740247
 H        -0.483342        -0.535165        -0.708483
 H         2.530301        -1.483335         1.467646
 H         2.251128        -2.352498        -0.119160
 H         5.218140         0.326994         0.529744
 H         5.022462         0.580126        -1.340724
 H         5.130282         2.296845         0.714651
 H         4.212472         2.648782        -0.826403
 H         2.665144         0.375741         2.004769
