19
Iteration:  1197charge 0 multiplicity 1
 C         0.053210         0.169422         0.085166
 C         1.523310         0.093107         0.092006
 C         2.277840        -1.303995         0.314010
 C         3.314768        -0.209666        -0.136964
 C         4.709669         0.537461        -0.193432
 C         4.220658         2.033667         0.026493
 O         2.920743         2.076897         0.607610
 C         2.518373         0.694736         0.938799
 O         2.221296         0.349644        -1.093994
 H        -0.386016         0.174061         1.106630
 H        -0.249427         1.054285        -0.542316
 H        -0.256775        -0.742414        -0.416628
 H         2.296840        -1.582456         1.330273
 H         2.012242        -2.107917        -0.354761
 H         5.448020         0.107242         0.496786
 H         5.245381         0.370546        -1.191987
 H         4.992022         2.530265         0.739053
 H         4.215190         2.638505        -0.922334
 H         2.514973         0.608542         2.053582
