19
Iteration:   576charge 0 multiplicity 1
 C         0.065108         0.240704        -0.035958
 C         1.510877        -0.032417         0.038210
 C         2.223217        -1.279292         0.334489
 C         3.292517        -0.131164        -0.060043
 C         4.669637         0.577761        -0.261656
 C         4.129443         2.143143        -0.011436
 O         2.956484         2.008535         0.853314
 C         2.646638         0.679449         0.979239
 O         2.284267         0.267951        -1.151412
 H        -0.364809         0.249558         0.977777
 H        -0.092617         1.255852        -0.406263
 H        -0.556192        -0.417820        -0.686859
 H         2.087274        -1.780285         1.311616
 H         2.497257        -1.908093        -0.620924
 H         5.338573         0.090332         0.415733
 H         4.896455         0.237780        -1.364905
 H         4.905991         2.837448         0.468551
 H         3.807549         2.527847        -1.044613
 H         2.704050         0.153914         1.966225
