19
Iteration:  4471
 C         0.016319         0.219481         0.073770
 C         1.505474        -0.039785         0.137400
 C         2.398690        -1.359234         0.263071
 C         3.296772        -0.067528         0.049370
 C         4.641635         0.526216        -0.167523
 C         4.276101         2.028174        -0.073980
 O         2.852627         2.090869         0.534543
 C         2.457832         0.802048         0.915737
 O         2.317096         0.226788        -1.049448
 H        -0.454460        -0.147587         1.019015
 H        -0.028432         1.342778         0.076646
 H        -0.452537        -0.174027        -0.851628
 H         2.682455        -1.952657         1.104889
 H         2.222277        -1.960506        -0.696857
 H         5.164479         0.199337         0.690280
 H         5.164493         0.400388        -1.029190
 H         4.887531         2.746796         0.542031
 H         4.075045         2.576075        -0.994865
 H         2.430139         0.620690         2.035526
