19
Iteration:  4449charge 0 multiplicity 1
 C        -0.002865         0.171341        -0.070865
 C         1.483987         0.017468         0.103149
 C         2.369073        -1.287631         0.329157
 C         3.330240        -0.131332         0.080606
 C         4.637433         0.431514        -0.226812
 C         4.073664         1.946947        -0.202065
 O         2.880525         2.088567         0.691636
 C         2.551733         0.799962         1.010851
 O         2.397184         0.382287        -1.038105
 H        -0.323412        -0.140682         0.955221
 H        -0.165976         1.249366        -0.233385
 H        -0.334448        -0.561791        -0.824138
 H         2.287498        -1.485780         1.374992
 H         2.596392        -2.166964        -0.379024
 H         5.477265         0.388265         0.391381
 H         4.900294         0.373701        -1.206761
 H         4.838645         2.612691         0.318757
 H         3.870423         2.385833        -1.200233
 H         2.612354         0.484613         2.096692
