19
Iteration:  1880charge 0 multiplicity 1
 C        -0.057674         0.174976         0.086112
 C         1.456772         0.020386         0.036962
 C         2.515984        -1.359211         0.389334
 C         3.297967        -0.137298        -0.026285
 C         4.506261         0.582387        -0.360569
 C         4.310508         2.021658         0.081266
 O         2.986102         2.103190         0.749682
 C         2.535102         0.768545         0.934027
 O         2.217847         0.280469        -1.216584
 H        -0.477597         0.176211         1.078323
 H        -0.383555         1.141693        -0.290213
 H        -0.691998        -0.433700        -0.679796
 H         2.487838        -1.815055         1.442820
 H         2.347497        -2.177209        -0.446783
 H         5.504316         0.218257         0.027432
 H         4.708970         0.600368        -1.422579
 H         4.912014         2.354530         0.879323
 H         4.454793         2.746972        -0.769716
 H         2.617917         0.243511         1.994249
