19
Iteration:  1140
 C        -0.049215         0.023898        -0.031358
 C         1.472168         0.055230         0.035971
 C         2.329603        -1.238904         0.399283
 C         3.246141        -0.077068         0.001294
 C         4.605637         0.492389        -0.296504
 C         4.278900         2.024629        -0.028014
 O         3.095049         2.060916         0.779328
 C         2.571048         0.845495         0.987764
 O         2.213202         0.324008        -1.162228
 H        -0.471534        -0.128101         0.973435
 H        -0.404885         0.956976        -0.491872
 H        -0.274873        -0.796276        -0.720321
 H         2.347754        -1.681491         1.374216
 H         2.110954        -1.910391        -0.376918
 H         5.364732         0.056718         0.420284
 H         4.667045         0.285714        -1.453663
 H         5.130957         2.484064         0.534880
 H         4.051035         2.637154        -0.980981
 H         2.621769         0.484963         2.063476
