19
Iteration:  3086
 C         0.010206         0.310524         0.039987
 C         1.495530         0.005582         0.009008
 C         2.338969        -1.349141         0.348978
 C         3.330426        -0.086306         0.025786
 C         4.619218         0.605484        -0.219337
 C         4.125069         1.994008        -0.223577
 O         2.957134         2.040921         0.818870
 C         2.554478         0.678910         1.030808
 O         2.346252         0.238255        -1.182405
 H        -0.328498        -0.091401         1.075711
 H        -0.229330         1.394851         0.190107
 H        -0.541853        -0.156501        -0.785551
 H         2.383243        -1.709458         1.421878
 H         2.168744        -2.113210        -0.483200
 H         5.606357         0.389222         0.446029
 H         5.060607         0.342744        -1.224086
 H         4.709660         2.835647         0.172671
 H         3.638066         2.352802        -1.121963
 H         2.519470         0.425306         2.020175
