19
Iteration:  2714charge 0 multiplicity 1
 C        -0.096361         0.028589         0.098097
 C         1.484741         0.004683         0.101026
 C         2.376425        -1.246407         0.244321
 C         3.343002        -0.096480        -0.032338
 C         4.649776         0.499547        -0.273870
 C         4.280598         1.991859         0.053857
 O         2.945296         2.097399         0.563646
 C         2.482858         0.840789         0.990913
 O         2.297531         0.338593        -1.105820
 H        -0.392216        -0.374942         1.050091
 H        -0.455053         1.082717         0.102214
 H        -0.575820        -0.541809        -0.786115
 H         2.436674        -1.606690         1.313283
 H         2.230194        -1.937578        -0.527624
 H         5.288299         0.085793         0.497098
 H         5.024639         0.377701        -1.317920
 H         4.991001         2.346829         0.950407
 H         4.441913         2.611695        -0.810428
 H         2.396323         0.763420         2.046428
