19
Iteration:  4795
 C        -0.016598         0.168794         0.122257
 C         1.522084        -0.003538         0.102278
 C         2.356604        -1.221073         0.350034
 C         3.280100        -0.134591        -0.020554
 C         4.651886         0.525255        -0.077791
 C         4.223026         1.988401        -0.061845
 O         2.862886         2.039595         0.503750
 C         2.528804         0.737126         0.888772
 O         2.343253         0.337075        -1.155634
 H        -0.339485         0.081566         1.146545
 H        -0.329757         1.066772        -0.310816
 H        -0.506847        -0.597411        -0.466789
 H         2.386698        -1.581935         1.372606
 H         2.310974        -2.054738        -0.408736
 H         5.278030         0.199157         0.873925
 H         5.273655         0.241617        -0.952603
 H         4.905931         2.673937         0.601479
 H         4.198468         2.573474        -1.020181
 H         2.494359         0.696002         1.979885
