19
Iteration:  1795charge 0 multiplicity 1
 C        -0.074120         0.124593         0.118457
 C         1.434820        -0.033577         0.095290
 C         2.406620        -1.297484         0.176265
 C         3.249631        -0.061893        -0.008706
 C         4.610415         0.409149        -0.198363
 C         4.200142         2.039247        -0.135637
 O         3.059204         2.145727         0.864047
 C         2.527255         0.781472         0.943851
 O         2.311095         0.336940        -1.165850
 H        -0.434272        -0.452535         0.956652
 H        -0.396899         1.138335         0.162408
 H        -0.383041        -0.362791        -0.806696
 H         2.414162        -1.820707         1.103602
 H         2.315499        -1.945316        -0.725113
 H         5.248947         0.237517         0.657124
 H         5.003407         0.211178        -1.154241
 H         4.931142         2.825656        -0.026473
 H         3.895981         2.343241        -1.179350
 H         2.748969         0.619439         1.988197
