19
Iteration:  4447
 C         0.007215         0.161361        -0.083655
 C         1.496765         0.027031         0.100645
 C         2.352547        -1.269010         0.329211
 C         3.315188        -0.119332         0.094495
 C         4.626287         0.448153        -0.237976
 C         4.086931         1.940581        -0.223101
 O         2.892012         2.070456         0.712842
 C         2.553329         0.789033         1.000399
 O         2.398843         0.377238        -1.027970
 H        -0.320657        -0.133080         0.981690
 H        -0.207923         1.223396        -0.288714
 H        -0.350059        -0.586176        -0.877915
 H         2.310066        -1.491495         1.402852
 H         2.563417        -2.137502        -0.279826
 H         5.453583         0.402694         0.424594
 H         4.926445         0.398526        -1.223904
 H         4.794857         2.589790         0.268675
 H         3.799956         2.419517        -1.156582
 H         2.640303         0.469119         2.069469
