19
Iteration:   627charge 0 multiplicity 1
 C        -0.063787         0.050906         0.023503
 C         1.481521        -0.040540         0.043015
 C         2.400982        -1.231346         0.104367
 C         3.290950        -0.090660         0.044665
 C         4.641017         0.479624        -0.104973
 C         4.179030         1.921872        -0.078062
 O         3.078842         2.097647         0.709479
 C         2.540903         0.809105         1.029745
 O         2.196186         0.456291        -1.086256
 H        -0.584893         0.112759         0.989012
 H        -0.405605         1.005369        -0.394218
 H        -0.470144        -0.756293        -0.614620
 H         2.458294        -1.717125         1.045508
 H         2.276949        -1.746215        -0.867233
 H         5.249249         0.246604         0.793486
 H         5.279579         0.113913        -0.972899
 H         5.053518         2.444188         0.353671
 H         4.074957         2.327405        -1.066236
 H         2.543783         0.377370         2.052461
