19
Iteration:  4873charge 0 multiplicity 1
 C         0.002153         0.050725        -0.144992
 C         1.491745        -0.013827         0.223076
 C         2.356676        -1.290954         0.466500
 C         3.254502        -0.083868         0.009869
 C         4.604369         0.504484        -0.349239
 C         4.328986         1.993473        -0.045938
 O         2.958172         2.139023         0.614295
 C         2.502976         0.827154         0.976364
 O         2.223965         0.308678        -1.034572
 H        -0.758226        -0.255469         0.511138
 H        -0.120797         1.083776        -0.434314
 H         0.045666        -0.480516        -1.027305
 H         2.472785        -1.483637         1.533499
 H         2.303142        -2.134699        -0.179231
 H         5.324118         0.028798         0.395570
 H         4.925438         0.402010        -1.416104
 H         4.978976         2.551292         0.680254
 H         4.204663         2.631794        -0.938978
 H         2.730850         0.699687         2.010490
