19
Iteration:  3996charge 0 multiplicity 1
 C         0.022751         0.164589         0.009655
 C         1.465917        -0.016878         0.151832
 C         2.364204        -1.362583         0.221608
 C         3.324175        -0.091760         0.087817
 C         4.616648         0.512931        -0.268270
 C         4.269342         2.019368        -0.047898
 O         2.851737         2.116669         0.598342
 C         2.493260         0.761596         0.995570
 O         2.375383         0.339060        -1.033891
 H        -0.410656         0.062692         0.994019
 H        -0.177542         1.178669        -0.360687
 H        -0.407983        -0.561532        -0.652176
 H         2.390592        -2.046677         1.069534
 H         2.119476        -2.021508        -0.652156
 H         5.423872         0.177958         0.349092
 H         4.786596         0.358844        -1.396850
 H         4.950654         2.445401         0.650871
 H         4.017749         2.717435        -0.841810
 H         2.522392         0.603403         2.042717
