19
Iteration:  2296charge 0 multiplicity 1
 C         0.039145         0.160938         0.026460
 C         1.486695        -0.048105         0.113403
 C         2.337819        -1.293569         0.313746
 C         3.288247        -0.160622        -0.091823
 C         4.616523         0.544424        -0.282105
 C         4.226376         2.005643        -0.103022
 O         2.970158         2.150315         0.805081
 C         2.572821         0.766640         0.975525
 O         2.206742         0.299175        -1.126742
 H        -0.386708        -0.038698         1.016218
 H        -0.114896         1.187119        -0.340431
 H        -0.457537        -0.569618        -0.504470
 H         2.569822        -1.741507         1.297793
 H         2.073390        -2.085442        -0.331645
 H         5.319647         0.449476         0.561717
 H         5.137565         0.344046        -1.219575
 H         5.061367         2.538164         0.422542
 H         4.033958         2.504175        -1.129520
 H         2.640699         0.567957         1.983099
