19
Iteration:  4622
 C        -0.137318         0.158569         0.116260
 C         1.399702        -0.057402        -0.004532
 C         2.376308        -1.279080         0.348268
 C         3.291181        -0.044258         0.004245
 C         4.630424         0.575752        -0.218056
 C         4.339170         2.091861         0.130631
 O         2.992787         2.205928         0.573665
 C         2.465486         0.798578         0.842768
 O         2.350518         0.052572        -1.154070
 H        -0.248218        -0.003697         1.224378
 H        -0.440417         1.191767        -0.175757
 H        -0.676791        -0.661650        -0.394300
 H         2.368703        -1.683435         1.344098
 H         2.391880        -2.058342        -0.514054
 H         5.460691         0.096810         0.343376
 H         4.897497         0.275821        -1.218299
 H         4.881633         2.578597         0.932555
 H         4.435586         2.660151        -0.781275
 H         2.580415         0.589798         1.915782
