19
Iteration:  3741charge 0 multiplicity 1
 C        -0.050126         0.027722         0.131767
 C         1.456131         0.006998         0.017295
 C         2.298236        -1.241029         0.370309
 C         3.284229        -0.063138        -0.088039
 C         4.671618         0.491564        -0.285710
 C         4.319865         2.023436         0.124649
 O         2.996129         2.223909         0.685440
 C         2.564251         0.823545         0.850704
 O         2.175818         0.192709        -1.209548
 H        -0.253563        -0.425491         1.071511
 H        -0.234024         1.132459         0.081348
 H        -0.537058        -0.471996        -0.760283
 H         2.282691        -1.742995         1.396405
 H         2.211455        -2.041102        -0.453471
 H         5.310287         0.169020         0.603960
 H         5.310722         0.366841        -1.182713
 H         5.006979         2.239862         0.948687
 H         4.461865         2.682754        -0.677792
 H         2.675666         0.651004         1.930254
