19
Iteration:  3949
 C        -0.040432         0.293532        -0.049287
 C         1.372899        -0.093393         0.066323
 C         2.405151        -1.330692         0.476750
 C         3.317919        -0.122930        -0.145268
 C         4.688450         0.639351        -0.266305
 C         4.195547         2.139840        -0.007680
 O         3.022112         2.009162         0.792412
 C         2.533192         0.741950         0.886380
 O         2.245429         0.150087        -1.143509
 H        -0.770693        -0.184066         0.745109
 H        -0.057484         1.399662        -0.071732
 H        -0.373849         0.020178        -1.093039
 H         2.458643        -1.748455         1.565367
 H         2.554225        -2.253054         0.001081
 H         5.324807         0.362747         0.514880
 H         5.051793         0.519218        -1.259798
 H         4.861985         2.856215         0.675059
 H         3.981868         2.684219        -0.957989
 H         2.538069         0.622972         2.000016
