19
Iteration:  4735
 C        -0.014590         0.049626        -0.208141
 C         1.451600         0.070251         0.118392
 C         2.231694        -1.216470         0.525580
 C         3.311670        -0.129740        -0.028293
 C         4.715004         0.567722        -0.381586
 C         4.116064         2.073603        -0.153971
 O         3.093368         2.064193         0.874469
 C         2.539972         0.842205         1.004093
 O         2.346591         0.212821        -1.072287
 H        -0.672359        -0.209881         0.700832
 H        -0.532050         1.036191        -0.611651
 H        -0.192286        -0.880964        -0.877860
 H         2.143598        -1.400164         1.673064
 H         2.241372        -2.056698        -0.148421
 H         5.327231         0.134334         0.353043
 H         5.014855         0.409520        -1.433687
 H         4.817644         2.821404         0.176188
 H         3.766065         2.143284        -1.207073
 H         2.364021         0.537902         2.072409
