19
Iteration:  3967charge 0 multiplicity 1
 C         0.041174         0.289656        -0.053082
 C         1.517878        -0.028078         0.067583
 C         2.355104        -1.341299         0.438368
 C         3.309531        -0.127368        -0.039660
 C         4.622099         0.641348        -0.347371
 C         4.209985         2.067064         0.004768
 O         2.873610         2.074079         0.761482
 C         2.553960         0.715492         0.950826
 O         2.309213         0.151579        -1.161722
 H        -0.441530        -0.037585         0.828670
 H        -0.067489         1.387648        -0.022333
 H        -0.442583        -0.178568        -0.938621
 H         2.479607        -1.589460         1.480311
 H         2.018314        -2.233896        -0.156448
 H         5.411577         0.239755         0.414967
 H         4.994875         0.578813        -1.378379
 H         4.960262         2.502189         0.679941
 H         3.865224         2.728706        -0.787325
 H         2.503306         0.433722         2.057100
