19
Iteration:  1101charge 0 multiplicity 1
 C        -0.032314         0.155765        -0.009009
 C         1.451532         0.012437         0.136532
 C         2.331134        -1.321668         0.333967
 C         3.286599        -0.124653         0.037307
 C         4.620772         0.513097        -0.199709
 C         4.205785         2.038736        -0.152205
 O         3.101474         2.092560         0.750882
 C         2.516720         0.748861         0.944435
 O         2.264522         0.346509        -1.135626
 H        -0.543755        -0.452189         0.763322
 H        -0.317115         1.230131         0.070304
 H        -0.433230        -0.272973        -0.929203
 H         2.453766        -1.992344         1.245579
 H         2.160358        -1.966661        -0.577122
 H         5.450136         0.306117         0.419202
 H         5.000832         0.273194        -1.123301
 H         4.893389         2.712948         0.364090
 H         4.016278         2.329309        -1.151197
 H         2.428103         0.590810         2.017455
