19
Iteration:  4708
 C         0.036446         0.081624        -0.159620
 C         1.494773         0.031323         0.059220
 C         2.347912        -1.266202         0.447697
 C         3.247662        -0.094837         0.067967
 C         4.544692         0.557493        -0.264285
 C         4.080284         2.013549        -0.234312
 O         3.125042         2.089841         0.848120
 C         2.538803         0.866529         1.044439
 O         2.351092         0.238578        -1.121688
 H        -0.474144        -0.340538         0.686128
 H        -0.325709         1.062229        -0.241664
 H        -0.232037        -0.502565        -0.999811
 H         2.201900        -1.566352         1.462268
 H         2.259313        -2.133297        -0.288056
 H         5.180834         0.263128         0.634692
 H         4.772924         0.190319        -1.270754
 H         4.883313         2.766748         0.067476
 H         3.731300         2.216893        -1.240744
 H         2.431163         0.569341         2.076477
