19
Iteration:  2997
 C        -0.072357        -0.013087         0.051849
 C         1.455494         0.123621         0.094580
 C         2.320470        -1.190454         0.303574
 C         3.292085        -0.140789        -0.112604
 C         4.616288         0.518557        -0.300096
 C         4.293578         2.018744         0.047483
 O         3.003008         2.080134         0.661561
 C         2.581725         0.841097         0.985020
 O         2.256749         0.298142        -1.073504
 H        -0.426715        -0.040700         1.072426
 H        -0.640259         0.862655        -0.390407
 H        -0.390523        -0.919828        -0.525959
 H         2.387733        -1.735125         1.299997
 H         2.225609        -1.890994        -0.584709
 H         5.286182        -0.126778         0.478783
 H         4.967918         0.372367        -1.407107
 H         5.154853         2.421182         0.638157
 H         4.261251         2.703242        -0.772604
 H         2.693410         0.467285         1.978620
