19
Iteration:  1828charge 0 multiplicity 1
 C        -0.008813         0.088982         0.019249
 C         1.468035         0.042431         0.151933
 C         2.327912        -1.269916         0.248443
 C         3.282291        -0.128056        -0.084308
 C         4.609922         0.455198        -0.236288
 C         4.270628         2.096871        -0.060544
 O         3.020650         2.037461         0.667322
 C         2.608307         0.739905         0.968414
 O         2.184185         0.447719        -1.035719
 H        -0.402347        -0.603109         0.772655
 H        -0.716477         0.912241        -0.061970
 H        -0.250099        -0.582702        -0.808313
 H         2.530905        -1.583071         1.261593
 H         2.166640        -2.080797        -0.503464
 H         5.249808         0.206136         0.626261
 H         5.305948         0.210960        -1.045739
 H         4.881297         2.697431         0.661806
 H         3.882077         2.365732        -1.103080
 H         2.897477         0.449750         2.045854
