19
Iteration:  1000
 C        -0.073898         0.123275        -0.089231
 C         1.474861         0.036790         0.069152
 C         2.448622        -1.256890         0.363674
 C         3.271548        -0.030149        -0.032727
 C         4.573958         0.495503        -0.320466
 C         4.300982         1.944074        -0.017928
 O         3.067528         2.075069         0.828884
 C         2.435235         0.857974         0.996885
 O         2.223739         0.238811        -1.159008
 H        -0.296121         0.309106         1.003297
 H        -0.313758         1.107536        -0.550631
 H        -0.675098        -0.719440        -0.500761
 H         2.736160        -1.773337         1.418430
 H         2.451108        -2.035836        -0.402744
 H         5.335619         0.302732         0.419954
 H         4.839791         0.283861        -1.403338
 H         5.060814         2.495269         0.606286
 H         4.148828         2.555383        -0.947641
 H         2.398958         0.456646         2.042574
