19
Iteration:  4303
 C        -0.029526         0.222360         0.191025
 C         1.474611        -0.057362         0.064126
 C         2.515146        -1.191153         0.350566
 C         3.295571        -0.074422        -0.104749
 C         4.589157         0.518765        -0.153758
 C         4.242475         2.029104         0.154820
 O         2.908938         2.127363         0.546199
 C         2.531613         0.798926         0.825908
 O         2.202609         0.121882        -1.267707
 H        -0.395929        -0.262007         1.145197
 H        -0.051991         1.348451         0.258870
 H        -0.448149        -0.179096        -0.790043
 H         2.435322        -1.478011         1.427204
 H         2.466608        -2.071352        -0.227263
 H         5.033909         0.035591         0.664666
 H         5.165186         0.354907        -1.066457
 H         4.962740         2.232273         0.955735
 H         4.598644         2.711456        -0.617107
 H         2.535605         0.414321         1.874337
