19
Iteration:  4389
 C        -0.070605         0.031331        -0.185762
 C         1.413665        -0.061712         0.087465
 C         2.433212        -1.239786         0.466582
 C         3.186788        -0.031679        -0.032782
 C         4.602610         0.525006        -0.252306
 C         4.218184         2.099821        -0.167646
 O         3.201981         2.090357         0.889626
 C         2.520243         0.864161         1.044634
 O         2.232516         0.199776        -1.194346
 H        -0.651883         0.083308         0.782815
 H        -0.434381         1.009484        -0.608891
 H        -0.648522        -0.740577        -0.792865
 H         2.493378        -1.436476         1.586616
 H         2.496403        -2.142190        -0.116373
 H         5.332128         0.136498         0.553629
 H         5.108439         0.371429        -1.333216
 H         4.990669         2.672667         0.313448
 H         3.815235         2.513530        -1.103273
 H         2.427148         0.693802         2.109578
