19
Iteration:  2186charge 0 multiplicity 1
 C        -0.010408        -0.003517         0.055804
 C         1.448399        -0.038289         0.102552
 C         2.446918        -1.283843         0.332805
 C         3.172501        -0.042652        -0.078953
 C         4.552172         0.586486        -0.300518
 C         4.481299         1.988815         0.095788
 O         2.997138         2.132235         0.606580
 C         2.529209         0.884985         0.973360
 O         2.081892         0.245666        -1.123998
 H        -0.580234        -0.479822         0.900845
 H        -0.221399         1.079221        -0.113979
 H        -0.194061        -0.421376        -0.933088
 H         2.386080        -1.472746         1.387690
 H         2.421575        -2.075428        -0.323637
 H         5.378540         0.122239         0.243630
 H         4.974443         0.456490        -1.351222
 H         5.230758         2.227814         0.933613
 H         4.749402         2.782070        -0.752120
 H         2.660586         0.683734         2.146651
