19
Iteration:  1163charge 0 multiplicity 1
 C        -0.134956         0.101768        -0.018928
 C         1.350258        -0.064475         0.133808
 C         2.497950        -1.331280         0.230583
 C         3.215679        -0.076768        -0.076436
 C         4.635652         0.421523        -0.290190
 C         4.359286         2.025130        -0.024700
 O         3.089632         2.236276         0.737248
 C         2.440515         0.825572         1.005673
 O         2.254759         0.289820        -1.033581
 H        -0.546977         0.253556         1.010091
 H        -0.229323         1.057882        -0.607775
 H        -0.549045        -0.719037        -0.580387
 H         2.671562        -1.767458         1.168279
 H         2.447562        -2.018034        -0.545883
 H         5.218097        -0.016281         0.563495
 H         4.847860         0.265469        -1.475460
 H         5.152940         2.517369         0.655192
 H         4.319473         2.543171        -1.076769
 H         2.308345         0.703401         2.152031
