19
Iteration:  3577charge 0 multiplicity 1
 C         0.009377         0.212073        -0.008264
 C         1.469593        -0.037375         0.178507
 C         2.406036        -1.280799         0.364249
 C         3.341230        -0.132520         0.011031
 C         4.669758         0.559162        -0.190828
 C         4.243687         2.007063        -0.209828
 O         2.944331         2.007530         0.623086
 C         2.510844         0.718928         0.998758
 O         2.189769         0.368061        -1.057681
 H        -0.724617        -0.081012         0.701468
 H        -0.168518         1.320443        -0.161527
 H        -0.323321        -0.181673        -1.008366
 H         2.359794        -1.766479         1.288390
 H         2.264672        -2.033126        -0.465170
 H         5.533466         0.364930         0.663922
 H         5.230583         0.338985        -1.153166
 H         4.972529         2.583578         0.396792
 H         4.003251         2.462711        -1.147829
 H         2.421010         0.472117         2.152616
