19
Iteration:   733
 C         0.064380         0.197860         0.009196
 C         1.495201        -0.018531         0.113609
 C         2.279764        -1.269345         0.328828
 C         3.282799        -0.113094        -0.091350
 C         4.691353         0.572935        -0.297866
 C         4.213745         1.974129         0.136259
 O         2.911261         2.058506         0.599977
 C         2.567147         0.682355         0.914282
 O         2.259512         0.356947        -1.064110
 H        -0.425721        -0.237096         0.898139
 H        -0.171659         1.262163        -0.145187
 H        -0.419717        -0.217229        -0.868556
 H         2.219315        -1.705179         1.377920
 H         2.245447        -2.086182        -0.436813
 H         5.469124         0.131336         0.403501
 H         5.052966         0.562104        -1.293084
 H         4.860477         2.349717         0.960322
 H         4.272098         2.660695        -0.724014
 H         2.553329         0.368374         1.929225
