19
Iteration:  4156
 C         0.005278         0.290906         0.123619
 C         1.527767         0.015873        -0.026760
 C         2.438375        -1.366072         0.310727
 C         3.279954        -0.148205         0.035484
 C         4.605408         0.557106        -0.179479
 C         4.090463         2.051509        -0.121854
 O         2.932552         2.087532         0.776628
 C         2.513592         0.766867         0.962272
 O         2.362833         0.245628        -1.261825
 H        -0.215588        -0.180777         1.124824
 H        -0.236940         1.363527         0.151623
 H        -0.567016        -0.252583        -0.624655
 H         2.503997        -1.660496         1.365696
 H         2.263262        -2.232846        -0.358208
 H         5.237521         0.292764         0.785415
 H         5.112210         0.189355        -1.084883
 H         4.902884         2.578149         0.337767
 H         3.912358         2.180723        -1.148303
 H         2.356366         0.428963         1.993169
