19
Iteration:  2423
 C         0.029706         0.198082         0.238923
 C         1.473299        -0.027237        -0.002110
 C         2.301057        -1.353723         0.288564
 C         3.299481        -0.085213         0.024676
 C         4.657308         0.543044        -0.290527
 C         4.298138         2.107339         0.053177
 O         2.910509         2.078460         0.663440
 C         2.494769         0.781360         0.930523
 O         2.275801         0.205268        -1.264839
 H        -0.151445         0.154927         1.308093
 H        -0.437654         1.177721        -0.044614
 H        -0.545569        -0.589126        -0.380660
 H         2.447392        -1.677991         1.320735
 H         2.318826        -2.075954        -0.416356
 H         5.469907         0.119470         0.311444
 H         5.145838         0.528074        -1.308012
 H         5.205004         2.368707         0.640470
 H         4.095135         2.804726        -0.749091
 H         2.345746         0.732497         2.046036
