19
Iteration:  2328charge 0 multiplicity 1
 C        -0.061924         0.087286         0.011403
 C         1.412710        -0.007070         0.086190
 C         2.303239        -1.191202         0.317551
 C         3.284191        -0.142865        -0.001212
 C         4.535375         0.564243        -0.277822
 C         4.142040         1.950527        -0.169212
 O         3.154011         2.084909         0.868136
 C         2.549876         0.813602         0.932734
 O         2.402307         0.288861        -1.094673
 H        -0.355685        -0.411856         0.954686
 H        -0.598039         1.059368        -0.014842
 H        -0.388870        -0.450882        -0.837609
 H         2.490255        -1.590138         1.410597
 H         2.144125        -1.874819        -0.482879
 H         5.499700         0.558644         0.217301
 H         4.816058         0.337228        -1.321017
 H         4.881976         2.732207         0.087698
 H         3.651782         2.322066        -1.087927
 H         2.505058         0.494075         1.946010
