19
Iteration:  2510
 C        -0.074394        -0.008795         0.054761
 C         1.462315         0.068440         0.120164
 C         2.291484        -1.215147         0.343195
 C         3.315224        -0.056670        -0.004111
 C         4.556873         0.463224        -0.398136
 C         4.363819         2.029718         0.017149
 O         2.977931         2.106192         0.724557
 C         2.499969         0.834434         0.904767
 O         2.334892         0.277547        -1.099445
 H        -0.294276        -0.474897         1.000348
 H        -0.577797         0.984456        -0.064611
 H        -0.480302        -0.719729        -0.698131
 H         2.299138        -1.721948         1.333301
 H         2.245266        -1.937454        -0.401542
 H         5.434188         0.116764         0.169648
 H         4.905851         0.442508        -1.474707
 H         5.246536         2.416885         0.694920
 H         4.204430         2.821281        -0.911736
 H         2.551951         0.604975         1.933055
