19
Iteration:  3766
 C        -0.105328         0.191319         0.097152
 C         1.407389         0.002118         0.187478
 C         2.481140        -1.328711         0.325339
 C         3.229450        -0.084149        -0.081618
 C         4.607518         0.578166        -0.222795
 C         4.378817         2.027295         0.120629
 O         2.909366         2.041714         0.481232
 C         2.509649         0.693723         0.907350
 O         2.270251         0.311299        -1.123457
 H        -0.592574        -0.203985         1.010867
 H        -0.119720         1.227008        -0.034513
 H        -0.398715        -0.210286        -0.820374
 H         2.585470        -1.714738         1.331607
 H         2.432680        -2.084628        -0.350077
 H         5.492427         0.130164         0.344925
 H         5.020212         0.599393        -1.363459
 H         4.874152         2.457710         0.945838
 H         4.593323         2.637681        -0.783571
 H         2.649884         0.604589         2.018682
