19
Iteration:  1912
 C         0.023591         0.179556         0.115347
 C         1.503398        -0.098588         0.187460
 C         2.356655        -1.288666         0.303277
 C         3.287830        -0.079974        -0.137310
 C         4.659075         0.569095        -0.355602
 C         4.349237         2.111239         0.145164
 O         2.865612         2.077390         0.634182
 C         2.571282         0.742601         0.886659
 O         2.160639         0.256073        -1.115151
 H        -0.428894         0.412318         1.067420
 H         0.096814         1.121160        -0.427478
 H        -0.535948        -0.647431        -0.522870
 H         2.315681        -1.895561         1.263106
 H         2.098578        -1.972349        -0.619171
 H         5.309469         0.074744         0.417896
 H         4.930576         0.589391        -1.399554
 H         4.839274         2.365377         1.017801
 H         4.653990         2.824531        -0.600494
 H         2.803166         0.219691         1.790285
