19
Iteration:   638
 C        -0.002159        -0.001071         0.012932
 C         1.447759         0.029118         0.117509
 C         2.265768        -1.249924         0.181583
 C         3.302134        -0.093213        -0.054485
 C         4.650088         0.493727        -0.114568
 C         4.331124         1.982163        -0.102237
 O         2.992939         2.080161         0.742439
 C         2.530818         0.743269         1.034174
 O         2.246742         0.467836        -1.125771
 H        -0.452696        -0.161093         1.001219
 H        -0.104020         0.993026        -0.426359
 H        -0.465471        -0.717547        -0.690049
 H         2.337101        -1.905283         1.009289
 H         2.098011        -1.926492        -0.690508
 H         5.233570         0.129050         0.743758
 H         5.117174         0.267364        -1.140574
 H         5.036320         2.649450         0.410757
 H         4.042001         2.307655        -1.083764
 H         2.540370         0.805275         2.138483
