19
Iteration:  3035
 C        -0.043035         0.077376        -0.045160
 C         1.410042         0.028633         0.141402
 C         2.455435        -1.260148         0.259766
 C         3.204802        -0.004726        -0.036920
 C         4.645449         0.464440        -0.284689
 C         4.261820         1.974362        -0.082260
 O         3.070692         2.086499         0.722015
 C         2.546175         0.792509         1.020377
 O         2.180768         0.307802        -1.036656
 H        -0.530172         0.017261         0.957893
 H        -0.207042         1.050838        -0.463659
 H        -0.435708        -0.662768        -0.712583
 H         2.538857        -1.682905         1.218460
 H         2.548988        -1.935604        -0.537607
 H         5.220452         0.132021         0.513808
 H         5.199856         0.307273        -1.143474
 H         4.893540         2.683216         0.456140
 H         3.884799         2.377747        -1.077107
 H         2.616175         0.587628         2.190156
