19
Iteration:  3862
 C        -0.030477        -0.024101        -0.013998
 C         1.473540         0.021334         0.160616
 C         2.358568        -1.251921         0.225363
 C         3.231139        -0.081538        -0.100958
 C         4.580017         0.493823        -0.106483
 C         4.226950         1.982777        -0.073841
 O         3.141239         2.185390         0.755863
 C         2.475946         0.840463         0.924980
 O         2.232320         0.313725        -1.100442
 H        -0.526692        -0.087197         1.008675
 H        -0.269368         0.909577        -0.537751
 H        -0.390557        -0.842567        -0.673699
 H         2.612521        -1.780123         1.263450
 H         2.249518        -1.876526        -0.622456
 H         5.234002         0.099136         0.661998
 H         5.177844         0.261213        -1.009246
 H         5.154538         2.587673         0.307025
 H         3.980001         2.465991        -1.006632
 H         2.536050         0.565409         1.971533
