19
Iteration:  3046charge 0 multiplicity 1
 C        -0.089892         0.158494        -0.014900
 C         1.471274         0.036193         0.114127
 C         2.403236        -1.324818         0.291548
 C         3.284414        -0.085434        -0.025579
 C         4.625468         0.519296        -0.240565
 C         4.204003         2.016830        -0.124888
 O         3.022000         2.096207         0.790049
 C         2.589972         0.812542         1.034593
 O         2.249493         0.291118        -1.129924
 H        -0.584716        -0.111277         0.950214
 H        -0.564417         1.032439        -0.385391
 H        -0.279021        -0.671461        -0.669817
 H         2.578826        -1.829904         1.202200
 H         2.190891        -1.972412        -0.502772
 H         5.252168         0.182397         0.515936
 H         4.952588         0.270013        -1.198395
 H         5.092240         2.563652         0.171508
 H         4.021967         2.359857        -1.183775
 H         2.658449         0.439353         2.166186
