19
Iteration:  1462charge 0 multiplicity 1
 C        -0.105410         0.048040        -0.022696
 C         1.407415         0.008250         0.101301
 C         2.415705        -1.337022         0.271518
 C         3.269742        -0.048070        -0.079022
 C         4.674903         0.534893        -0.260946
 C         4.383817         2.031022         0.017457
 O         3.038510         2.116922         0.722394
 C         2.536552         0.831039         1.004359
 O         2.136283         0.319013        -1.107922
 H        -0.337861        -0.528263         0.893551
 H        -0.483625         1.096571         0.016897
 H        -0.414775        -0.423685        -0.958624
 H         2.677450        -1.568537         1.302659
 H         2.236947        -2.252745        -0.391106
 H         5.286023        -0.004197         0.583811
 H         5.014729         0.409114        -1.332195
 H         5.160313         2.560482         0.655134
 H         4.086217         2.447570        -0.987797
 H         2.505428         0.528700         2.036425
