19
Iteration:  1081
 C         0.010507         0.275965         0.034553
 C         1.444282        -0.126011         0.009009
 C         2.498956        -1.304124         0.190268
 C         3.261910        -0.014756         0.023472
 C         4.597849         0.453292        -0.202446
 C         4.198340         1.885920        -0.202676
 O         2.948764         2.127020         0.735717
 C         2.547813         0.845732         1.121847
 O         2.256724         0.309696        -1.053629
 H        -0.634910        -0.211242         0.758294
 H        -0.047826         1.358357         0.180425
 H        -0.557822         0.083725        -0.900656
 H         2.481043        -1.873248         1.203842
 H         2.568789        -2.070204        -0.680002
 H         5.221771         0.219110         0.731082
 H         5.214111         0.123947        -1.005017
 H         4.846061         2.599528         0.224027
 H         3.883786         2.176820        -1.167287
 H         2.543476         0.467034         2.091234
