19
Iteration:   480
 C        -0.110493        -0.047954         0.150223
 C         1.414567         0.112363         0.089119
 C         2.267409        -1.292093         0.145408
 C         3.202496        -0.096861        -0.104761
 C         4.697891         0.498188        -0.098945
 C         4.330248         1.973183        -0.002830
 O         3.021785         2.158744         0.776204
 C         2.573371         0.799240         0.979416
 O         2.325345         0.378746        -1.283735
 H        -0.294865        -0.629816         1.071337
 H        -0.707973         0.870158         0.052142
 H        -0.529483        -0.610673        -0.718062
 H         2.181207        -1.658770         1.155904
 H         2.329431        -1.948379        -0.747478
 H         5.203509         0.193662         0.861919
 H         5.303529         0.566783        -0.967119
 H         5.110954         2.408349         0.543688
 H         4.238668         2.296141        -1.062046
 H         2.629722         0.620300         2.067722
