19
Iteration:  4110
 C         0.082664         0.191661        -0.121202
 C         1.533985         0.021097         0.260584
 C         2.378061        -1.337304         0.311343
 C         3.244388        -0.164058        -0.005821
 C         4.603371         0.515776        -0.308886
 C         4.163295         2.078587        -0.082603
 O         2.860860         2.066118         0.663945
 C         2.623994         0.754789         1.030732
 O         2.253091         0.334179        -1.013298
 H        -0.696764        -0.149599         0.583006
 H        -0.032609         1.239999        -0.250997
 H        -0.037617        -0.277954        -1.082310
 H         2.430016        -2.077996         1.176110
 H         2.289397        -1.946841        -0.548492
 H         5.353723         0.165410         0.602400
 H         4.928338         0.451494        -1.345133
 H         5.055607         2.406182         0.489872
 H         3.993578         2.519572        -1.080487
 H         2.852503         0.591035         2.078838
