19
Iteration:   673charge 0 multiplicity 1
 C        -0.047009         0.090615        -0.059966
 C         1.436667         0.027521         0.082029
 C         2.341519        -1.224337         0.323686
 C         3.263005        -0.108449        -0.006924
 C         4.594044         0.519528        -0.293145
 C         4.315475         2.024453         0.039738
 O         2.975093         2.037972         0.797539
 C         2.594370         0.774543         0.990136
 O         2.288320         0.287155        -1.202322
 H        -0.546469        -0.248482         0.838824
 H        -0.131365         1.137986         0.190316
 H        -0.505910        -0.226097        -1.007779
 H         2.315414        -1.501436         1.337845
 H         2.227745        -2.025609        -0.425993
 H         5.431520         0.225209         0.278724
 H         4.938182         0.573979        -1.384361
 H         5.093134         2.542086         0.654562
 H         4.228721         2.605829        -0.899728
 H         2.281902         0.514756         2.022648
