19
Iteration:  3881charge 0 multiplicity 1
 C        -0.146999        -0.047685        -0.019806
 C         1.456227         0.035040         0.040566
 C         2.291728        -1.258121         0.235791
 C         3.239878        -0.048489         0.073998
 C         4.774794         0.492021        -0.150183
 C         4.286996         1.980734        -0.195995
 O         2.987878         2.061056         0.714212
 C         2.627550         0.814631         1.030342
 O         2.263006         0.483316        -1.064053
 H        -0.420008        -0.317818         1.014200
 H        -0.749309         0.845167        -0.426644
 H        -0.556927        -0.915981        -0.689041
 H         2.218002        -1.782572         1.229416
 H         2.393924        -2.070439        -0.558353
 H         5.313109         0.353594         0.812178
 H         5.221722         0.142837        -0.991741
 H         5.174529         2.667439         0.196169
 H         4.038331         2.299232        -1.225282
 H         2.515844         0.514160         2.097025
