19
Iteration:  3891charge 0 multiplicity 1
 C        -0.126174        -0.069189        -0.022252
 C         1.424788         0.023693         0.009797
 C         2.249998        -1.215111         0.251326
 C         3.339018        -0.099357         0.075375
 C         4.712202         0.518409        -0.107929
 C         4.236325         1.917037        -0.220018
 O         3.001243         2.062969         0.655110
 C         2.578973         0.766432         1.048870
 O         2.323901         0.536803        -1.029723
 H        -0.422156        -0.314911         0.982662
 H        -0.529372         0.995469        -0.137608
 H        -0.488649        -0.872518        -0.758222
 H         2.196635        -1.527108         1.263091
 H         2.385908        -1.959263        -0.614790
 H         5.583326         0.336797         0.554802
 H         5.112839         0.183664        -1.020964
 H         4.948583         2.647963         0.323154
 H         3.846522         2.363401        -1.141306
 H         2.707688         0.506738         2.156572
