19
Iteration:  3888
 C        -0.155086        -0.071308        -0.030230
 C         1.450566         0.029493         0.018188
 C         2.247448        -1.231514         0.247135
 C         3.298875        -0.077657         0.081310
 C         4.738999         0.526355        -0.099991
 C         4.263544         1.928214        -0.220492
 O         2.986044         2.053252         0.670499
 C         2.611737         0.782833         1.043058
 O         2.300224         0.527601        -1.036321
 H        -0.383066        -0.305388         0.979089
 H        -0.595528         0.899520        -0.216806
 H        -0.520268        -0.821033        -0.673438
 H         2.187352        -1.555875         1.232674
 H         2.482755        -1.951956        -0.584536
 H         5.592359         0.346211         0.611734
 H         5.217182         0.101496        -1.104072
 H         4.963345         2.537575         0.199875
 H         3.884992         2.423143        -1.132569
 H         2.641294         0.456565         2.110507
