19
Iteration:  2480
 C        -0.037959         0.030369        -0.007120
 C         1.454577        -0.034895         0.160235
 C         2.378339        -1.313343         0.320552
 C         3.315619        -0.052958        -0.032852
 C         4.587424         0.491624        -0.354541
 C         4.352628         1.998461         0.091287
 O         2.978483         2.113433         0.575819
 C         2.587530         0.837456         0.933519
 O         2.137714         0.364587        -1.026238
 H        -0.527137         0.016803         1.029226
 H        -0.289846         1.043490        -0.487232
 H        -0.468018        -0.798252        -0.540617
 H         2.414993        -1.816284         1.299102
 H         2.354220        -1.994416        -0.547284
 H         5.274736         0.126620         0.421166
 H         4.968229         0.607074        -1.374922
 H         5.165291         2.301268         0.774649
 H         4.310692         2.651972        -0.695521
 H         2.797255         0.786606         2.027560
