19
Iteration:  3026
 C        -0.015836         0.029478        -0.034185
 C         1.431199        -0.106337         0.176658
 C         2.443237        -1.218884         0.300469
 C         3.259841        -0.067140        -0.074491
 C         4.621446         0.473819        -0.241325
 C         4.318003         1.970504        -0.085193
 O         3.061960         2.107134         0.707437
 C         2.496758         0.817983         0.935161
 O         2.139088         0.429661        -1.017598
 H        -0.614112         0.074954         0.855332
 H        -0.001973         1.000264        -0.551467
 H        -0.609315        -0.679598        -0.702553
 H         2.636816        -1.709063         1.302687
 H         2.343474        -1.950049        -0.472446
 H         5.158127         0.069999         0.527565
 H         4.998385         0.260556        -1.225488
 H         5.091430         2.490863         0.501157
 H         4.092174         2.571510        -1.021924
 H         2.553649         0.545169         2.063494
