19
Iteration:  2683
 C        -0.032846        -0.071152         0.009615
 C         1.531629         0.058300         0.125555
 C         2.269730        -1.214945         0.290725
 C         3.317034        -0.068390        -0.013572
 C         4.596903         0.499662        -0.297164
 C         4.327215         2.001483         0.027757
 O         2.986206         2.111016         0.651904
 C         2.529019         0.823938         1.001713
 O         2.280795         0.359080        -1.108984
 H        -0.487928        -0.235934         0.959443
 H        -0.570528         0.846698        -0.354369
 H        -0.354048        -0.943485        -0.671434
 H         2.147940        -1.729217         1.343131
 H         2.094244        -1.928096        -0.487298
 H         5.348537        -0.020162         0.264724
 H         4.923657         0.464302        -1.352745
 H         4.967884         2.527401         0.691025
 H         4.194539         2.485205        -0.944010
 H         2.527692         0.723790         2.163619
