19
Iteration:   678
 C        -0.000643         0.135995        -0.047669
 C         1.462974        -0.035784         0.073968
 C         2.350751        -1.270061         0.320683
 C         3.214274        -0.068009         0.004992
 C         4.615673         0.548477        -0.315875
 C         4.364843         2.046160         0.050051
 O         2.980353         2.041528         0.801902
 C         2.521563         0.799979         0.991782
 O         2.264368         0.264468        -1.204306
 H        -0.595693        -0.358170         0.769590
 H        -0.134812         1.244928         0.109906
 H        -0.483176        -0.104580        -0.995050
 H         2.334723        -1.516503         1.456446
 H         2.292018        -2.050294        -0.423673
 H         5.524059         0.057101         0.200379
 H         4.808342         0.451331        -1.349374
 H         5.071097         2.586281         0.677038
 H         4.149076         2.586632        -0.887096
 H         2.290206         0.375008         1.980808
