19
Iteration:   234charge 0 multiplicity 1
 C         0.026623         0.296935        -0.054774
 C         1.481941        -0.150000         0.057815
 C         2.376565        -1.307848         0.328591
 C         3.296671        -0.147266        -0.128157
 C         4.549821         0.522699        -0.315922
 C         4.215475         2.084774         0.072149
 O         2.947712         2.160721         0.807692
 C         2.605747         0.745944         0.994690
 O         2.225285         0.177394        -1.136164
 H        -0.339202         0.473569         0.986170
 H         0.014361         1.345518        -0.471106
 H        -0.466442        -0.472251        -0.695525
 H         2.414012        -1.699568         1.374607
 H         2.476152        -2.120825        -0.459560
 H         5.396604         0.082203         0.276693
 H         5.055829         0.588567        -1.259096
 H         4.912566         2.658947         0.756919
 H         4.095880         2.780270        -0.763406
 H         2.555660         0.454340         2.091806
