19
Iteration:  1203charge 0 multiplicity 1
 C         0.067238         0.173802         0.099142
 C         1.526335         0.060872         0.105827
 C         2.223292        -1.322149         0.326279
 C         3.343522        -0.166200        -0.164452
 C         4.709148         0.463059        -0.227538
 C         4.214169         2.099149         0.044998
 O         2.893577         2.044615         0.619387
 C         2.523554         0.743453         0.947899
 O         2.311465         0.341488        -1.129081
 H        -0.388081         0.246451         1.081655
 H        -0.493596         1.016361        -0.305135
 H        -0.395091        -0.670092        -0.467498
 H         2.417453        -1.589318         1.441633
 H         1.733836        -2.140436        -0.283451
 H         5.338976         0.093079         0.610344
 H         5.195088         0.495807        -1.217711
 H         4.941614         2.619263         0.607049
 H         4.162407         2.675515        -0.884848
 H         2.445754         0.502019         2.013852
