19
Iteration:  2362charge 0 multiplicity 1
 C         0.002413         0.121381        -0.066341
 C         1.463581        -0.012730         0.173538
 C         2.371109        -1.242738         0.315088
 C         3.266325        -0.118064        -0.020091
 C         4.657979         0.520970        -0.212470
 C         4.169643         2.012439        -0.181963
 O         3.054013         2.064024         0.722345
 C         2.630186         0.760955         0.985900
 O         2.147887         0.368166        -1.014128
 H        -0.578800        -0.508101         0.640067
 H        -0.336841         1.179482        -0.029307
 H        -0.131364        -0.303850        -1.009073
 H         2.624206        -1.746364         1.308864
 H         2.187132        -2.002224        -0.494975
 H         5.302631         0.246966         0.638039
 H         5.016474         0.314744        -1.206309
 H         5.050111         2.644925         0.118760
 H         3.707307         2.410020        -1.160212
 H         2.715761         0.397935         1.981366
