19
Iteration:   725charge 0 multiplicity 1
 C         0.032504         0.261968        -0.015075
 C         1.432666         0.011459         0.148864
 C         2.325185        -1.289159         0.336999
 C         3.300605        -0.023633        -0.093146
 C         4.663555         0.537564        -0.286365
 C         4.276679         2.039424         0.133543
 O         2.880409         2.012343         0.622945
 C         2.546212         0.644522         0.963813
 O         2.256899         0.280375        -1.112921
 H        -0.513530        -0.316626         0.771236
 H        -0.262323         1.350372        -0.052664
 H        -0.144078        -0.313431        -0.993236
 H         2.391230        -1.651473         1.378850
 H         2.193567        -2.086801        -0.482852
 H         5.546231         0.138257         0.223034
 H         5.046010         0.737857        -1.376131
 H         4.994631         2.371910         0.866967
 H         4.371711         2.578506        -0.790634
 H         2.765765         0.371415         2.065345
