19
Iteration:  1481
 C         0.024552         0.000655         0.071601
 C         1.485942        -0.059814         0.060382
 C         2.399780        -1.227152         0.279097
 C         3.254797        -0.053344         0.030108
 C         4.519965         0.432567        -0.280305
 C         4.232278         1.976596        -0.059564
 O         3.037726         2.155907         0.787680
 C         2.495629         0.835645         0.906987
 O         2.289210         0.405717        -1.131937
 H        -0.523463        -0.301262         0.955511
 H        -0.266781         1.023193        -0.022990
 H        -0.445035        -0.464332        -0.801938
 H         2.308243        -1.794680         1.194201
 H         2.379274        -1.827444        -0.724187
 H         5.303251         0.174413         0.509529
 H         4.867863         0.165636        -1.242238
 H         4.968851         2.350514         0.572157
 H         4.266759         2.379915        -0.994710
 H         2.479997         0.506253         2.000309
