19
Iteration:  4936
 C         0.008646         0.107581         0.038670
 C         1.472235         0.045461        -0.010740
 C         2.422752        -1.200341         0.377604
 C         3.277267        -0.083155        -0.058529
 C         4.634817         0.529486        -0.111244
 C         4.154764         1.972593        -0.124190
 O         3.032126         2.079910         0.746778
 C         2.496703         0.843297         0.950443
 O         2.271144         0.245168        -1.176413
 H        -0.404683        -0.023792         1.091932
 H        -0.400753         1.051309        -0.423339
 H        -0.511157        -0.715575        -0.610366
 H         2.474540        -1.586490         1.413545
 H         2.389701        -2.110674        -0.251310
 H         5.027416         0.186072         0.862726
 H         5.275136         0.139962        -0.887434
 H         4.972859         2.711295         0.091016
 H         3.839380         2.228796        -1.064646
 H         2.405834         0.394849         1.938771
