19
Iteration:  4268
 C        -0.058247         0.100905         0.031151
 C         1.439315        -0.032383         0.069756
 C         2.254304        -1.259207         0.418126
 C         3.352650        -0.125748        -0.014363
 C         4.666192         0.598326        -0.346303
 C         4.335850         2.094175         0.105514
 O         2.991800         2.157367         0.653279
 C         2.547812         0.760426         0.918612
 O         2.251114         0.153510        -1.150305
 H        -0.609119        -0.214234         0.916626
 H        -0.379250         1.164495        -0.243627
 H        -0.468771        -0.518997        -0.826096
 H         2.187666        -1.521992         1.456764
 H         2.241478        -2.077702        -0.356317
 H         5.588526         0.205695         0.098206
 H         4.800379         0.470461        -1.489223
 H         4.904730         2.401785         0.948840
 H         4.291456         2.774784        -0.700510
 H         2.626840         0.751447         1.990328
