19
Iteration:  3249charge 0 multiplicity 1
 C         0.012562         0.205429         0.065545
 C         1.465413        -0.040005         0.125717
 C         2.334687        -1.349602         0.349718
 C         3.326561        -0.090878         0.042703
 C         4.652197         0.554086        -0.342276
 C         4.292071         2.043369         0.013539
 O         2.900831         2.057561         0.581375
 C         2.412372         0.746000         0.932220
 O         2.329353         0.336788        -1.075864
 H        -0.532051        -0.029124         1.051350
 H        -0.244691         1.244874        -0.095938
 H        -0.377314        -0.406475        -0.739323
 H         2.470815        -1.865589         1.415756
 H         2.309378        -1.983449        -0.534353
 H         5.651652         0.389545         0.059498
 H         4.881124         0.330692        -1.349690
 H         5.067142         2.351228         0.796469
 H         4.283825         2.509622        -0.938590
 H         2.376770         0.380818         2.033834
