19
Iteration:  1315charge 0 multiplicity 1
 C        -0.036467         0.043545        -0.027186
 C         1.462809        -0.004954         0.060622
 C         2.329996        -1.203308         0.203199
 C         3.290653        -0.115681         0.115907
 C         4.529333         0.492574        -0.260981
 C         4.170840         1.976842        -0.121601
 O         3.119464         2.103896         0.827793
 C         2.497730         0.833717         1.045596
 O         2.343836         0.325113        -1.152479
 H        -0.323468        -0.234130         1.020095
 H        -0.122702         1.150839        -0.098656
 H        -0.557720        -0.570844        -0.767399
 H         2.403649        -1.644539         1.321710
 H         2.411142        -1.937777        -0.605063
 H         5.463603         0.271116         0.326918
 H         4.935376         0.265897        -1.340750
 H         4.963261         2.602331         0.196839
 H         3.791362         2.416441        -1.097364
 H         2.212385         0.596796         2.092266
