19
Iteration:  1276charge 0 multiplicity 1
 C        -0.046377         0.118682        -0.063012
 C         1.392268        -0.037331         0.265647
 C         2.339896        -1.204780         0.291118
 C         3.272512        -0.120414        -0.110949
 C         4.633629         0.566391        -0.235240
 C         4.183810         1.978740        -0.124157
 O         3.001534         2.028085         0.736294
 C         2.627878         0.735024         0.979804
 O         2.342772         0.370279        -1.061641
 H        -0.774994        -0.354022         0.587921
 H        -0.412571         1.136814        -0.076239
 H        -0.127649        -0.270737        -1.098161
 H         2.603749        -1.494001         1.258715
 H         2.016760        -2.039905        -0.357886
 H         5.099982         0.240332         0.699610
 H         5.119017         0.297239        -1.086686
 H         5.009866         2.697579         0.282480
 H         3.966146         2.377531        -1.092931
 H         2.674067         0.649955         2.089361
