19
Iteration:  1642charge 0 multiplicity 1
 C        -0.112794         0.037775         0.065238
 C         1.413697        -0.129038         0.099373
 C         2.435026        -1.340084         0.266994
 C         3.206646        -0.051418        -0.076690
 C         4.590904         0.446274        -0.212508
 C         4.382710         2.065571        -0.087661
 O         3.086257         2.136676         0.750141
 C         2.511837         0.818927         0.964090
 O         2.215427         0.453803        -1.122226
 H        -0.443949        -0.495090         0.937417
 H        -0.383869         1.088772         0.093094
 H        -0.496254        -0.493199        -0.837260
 H         2.526592        -1.781768         1.199730
 H         2.260919        -2.071755        -0.582059
 H         5.182642         0.269180         0.618002
 H         5.138950         0.136159        -1.012212
 H         5.160496         2.660654         0.491699
 H         4.112278         2.506316        -1.140907
 H         2.502251         0.615849         1.994401
