19
Iteration:  4178charge 0 multiplicity 1
 C        -0.024371         0.119913         0.132359
 C         1.497426        -0.017736        -0.028150
 C         2.321313        -1.213144         0.334421
 C         3.302225        -0.094392        -0.097459
 C         4.664096         0.549154        -0.153047
 C         4.131847         2.032262        -0.097209
 O         3.046145         2.099326         0.862418
 C         2.445249         0.859950         0.867263
 O         2.361332         0.199345        -1.215863
 H        -0.144938        -0.063913         1.233321
 H        -0.262691         1.168491        -0.110315
 H        -0.600601        -0.592218        -0.450187
 H         2.164160        -1.649890         1.328466
 H         2.193977        -1.915222        -0.553986
 H         5.404110         0.257724         0.775157
 H         5.193746         0.163412        -1.064448
 H         4.897789         2.643316         0.296247
 H         3.759947         2.023900        -1.117643
 H         2.350591         0.408081         1.852192
