19
Iteration:   854charge 0 multiplicity 1
 C         0.033108         0.215446        -0.150052
 C         1.461929        -0.021756         0.044589
 C         2.356665        -1.279952         0.317207
 C         3.293126        -0.136841         0.052869
 C         4.497731         0.529693        -0.283466
 C         4.054153         1.990603        -0.133845
 O         3.027880         2.035629         0.788285
 C         2.581634         0.721921         1.076117
 O         2.400235         0.362590        -1.029213
 H        -0.444998        -0.065586         0.792492
 H        -0.038148         1.312319        -0.052229
 H        -0.555828        -0.117371        -1.001432
 H         2.512762        -1.917535         1.226797
 H         2.394987        -1.926545        -0.664588
 H         5.327287         0.377039         0.421066
 H         4.587238         0.180121        -1.278944
 H         4.977532         2.481355         0.304106
 H         3.945468         2.545951        -1.108379
 H         2.630469         0.578270         2.178110
