19
Iteration:  1252charge 0 multiplicity 1
 C         0.054558         0.194924        -0.029348
 C         1.409420         0.011685         0.056934
 C         2.469736        -1.391891         0.339863
 C         3.243546        -0.096500        -0.016239
 C         4.708205         0.504691        -0.227520
 C         4.206855         2.053342        -0.034401
 O         3.005828         2.108527         0.726114
 C         2.509815         0.793307         0.973413
 O         2.155335         0.271369        -1.131907
 H        -0.362082        -0.157599         0.913693
 H        -0.187162         1.231111         0.209075
 H        -0.548143        -0.039445        -0.880058
 H         2.623088        -1.930204         1.204502
 H         2.486562        -1.964071        -0.573986
 H         5.147741         0.015640         0.676616
 H         5.097039         0.073441        -1.176430
 H         4.916441         2.828358         0.401633
 H         4.061707         2.460407        -1.047395
 H         2.480696         0.620134         2.046574
