19
Iteration:  3769
 C        -0.067918         0.197150         0.093310
 C         1.414940         0.009324         0.192052
 C         2.481971        -1.347758         0.345583
 C         3.282991        -0.078815        -0.058596
 C         4.617442         0.557638        -0.247980
 C         4.317250         1.988034         0.122657
 O         2.878512         2.057101         0.473045
 C         2.502915         0.706413         0.905788
 O         2.258917         0.331590        -1.114016
 H        -0.646218        -0.121573         1.000961
 H        -0.071607         1.293688        -0.056819
 H        -0.367317        -0.196240        -0.874331
 H         2.613989        -1.790592         1.291352
 H         2.453854        -2.087853        -0.499682
 H         5.462643         0.183368         0.264733
 H         5.003439         0.519704        -1.279800
 H         4.994834         2.375716         0.986293
 H         4.599580         2.676941        -0.775309
 H         2.675551         0.592700         1.992907
