19
Iteration:   798
 C        -0.036396         0.074800         0.012910
 C         1.444836         0.071128        -0.000287
 C         2.261888        -1.353484         0.310522
 C         3.267863        -0.048408        -0.176075
 C         4.609944         0.545224        -0.143353
 C         4.331983         2.058428        -0.009037
 O         3.057082         2.125574         0.804845
 C         2.575473         0.694781         0.951231
 O         2.204980         0.375059        -1.164249
 H        -0.330942        -0.051727         1.045847
 H        -0.524583         0.840872        -0.567981
 H        -0.246670        -0.863870        -0.449501
 H         2.282892        -1.669382         1.367665
 H         2.451073        -2.244531        -0.341132
 H         5.035316         0.090590         0.784912
 H         5.101697         0.021427        -0.841170
 H         5.160499         2.614908         0.508837
 H         4.109976         2.386193        -1.047238
 H         2.821278         0.419582         1.969353
