19
Iteration:  1913
 C         0.015142         0.180030         0.113937
 C         1.508392        -0.100956         0.187019
 C         2.356274        -1.298415         0.301195
 C         3.289589        -0.088340        -0.126906
 C         4.659707         0.576632        -0.352152
 C         4.351014         2.106310         0.151297
 O         2.864903         2.078752         0.626414
 C         2.570974         0.748973         0.885874
 O         2.158694         0.265001        -1.121422
 H        -0.438021         0.394595         1.091708
 H         0.117675         1.130287        -0.423425
 H        -0.538735        -0.664689        -0.495994
 H         2.303649        -1.925368         1.269376
 H         2.088682        -1.965149        -0.641988
 H         5.300963         0.083822         0.424012
 H         4.929901         0.583906        -1.412835
 H         4.862352         2.350173         1.018995
 H         4.647855         2.842168        -0.650975
 H         2.850241         0.230220         1.848943
