19
Iteration:   903
 C        -0.018442         0.275460         0.068582
 C         1.389277        -0.031858         0.071569
 C         2.395510        -1.306159         0.233951
 C         3.285292        -0.135517        -0.067108
 C         4.630542         0.582784        -0.142684
 C         4.196553         2.068270        -0.086937
 O         3.004482         2.059172         0.770257
 C         2.602478         0.728569         0.972760
 O         2.273096         0.210204        -1.204802
 H        -0.617362        -0.247314         0.863938
 H        -0.103066         1.374413         0.202966
 H        -0.313037        -0.024603        -0.958489
 H         2.279254        -1.611900         1.334993
 H         2.338747        -2.167056        -0.380057
 H         4.895283         0.261840         0.886764
 H         5.325226         0.212908        -0.954259
 H         4.843446         2.764485         0.407150
 H         4.029027         2.506052        -1.051122
 H         2.631441         0.488777         2.028528
