19
Iteration:  3346charge 0 multiplicity 1
 C         0.031332        -0.007718        -0.000014
 C         1.447352         0.024615         0.120772
 C         2.264052        -1.180607         0.186038
 C         3.303518        -0.108855         0.102611
 C         4.653454         0.498834        -0.214890
 C         4.121590         1.932089        -0.135992
 O         3.090234         2.154508         0.711328
 C         2.470876         0.799371         1.019297
 O         2.348746         0.392253        -1.057883
 H        -0.469896        -0.241483         1.030853
 H        -0.428926         0.871595        -0.436288
 H        -0.099037        -0.900242        -0.617775
 H         2.136839        -1.772294         1.184491
 H         2.061719        -1.875632        -0.572238
 H         5.437856         0.028944         0.473578
 H         5.029932         0.187856        -1.182089
 H         5.096962         2.682248        -0.099484
 H         3.842700         2.146545        -1.189999
 H         2.391379         0.694094         2.062724
