19
Iteration:  4452charge 0 multiplicity 1
 C        -0.009629         0.186014        -0.041960
 C         1.471038        -0.000473         0.100119
 C         2.399188        -1.318533         0.323783
 C         3.344851        -0.148219         0.058004
 C         4.646676         0.422044        -0.206596
 C         4.063010         1.969106        -0.160614
 O         2.867018         2.117597         0.655028
 C         2.543755         0.805970         1.032157
 O         2.392656         0.386084        -1.055981
 H        -0.380446        -0.137053         0.888735
 H        -0.137862         1.266535        -0.163927
 H        -0.341173        -0.497662        -0.758255
 H         2.273370        -1.561182         1.395198
 H         2.559176        -2.133917        -0.474108
 H         5.576759         0.320108         0.427304
 H         4.916963         0.270018        -1.343885
 H         4.870685         2.613604         0.351161
 H         3.969241         2.301509        -1.237529
 H         2.552432         0.561843         2.109967
