19
Iteration:  1498charge 0 multiplicity 1
 C        -0.022591         0.065186         0.059815
 C         1.458894         0.082393         0.058183
 C         2.299952        -1.285723         0.199906
 C         3.239561        -0.086692        -0.007449
 C         4.658398         0.515426        -0.247062
 C         4.242972         1.992566        -0.099725
 O         2.967824         2.062790         0.740781
 C         2.495777         0.774465         1.060408
 O         2.399890         0.362291        -1.100640
 H        -0.286319        -0.296080         1.095218
 H        -0.553232         1.053489        -0.066123
 H        -0.434929        -0.739454        -0.582132
 H         2.391904        -1.739674         1.215177
 H         2.191580        -1.994682        -0.554385
 H         5.451465         0.115806         0.349968
 H         4.993386         0.253476        -1.299766
 H         5.054189         2.712814         0.260185
 H         3.865836         2.578921        -1.038997
 H         2.494174         0.618159         2.126240
