19
Iteration:   324charge 0 multiplicity 1
 C        -0.112249         0.020887         0.062193
 C         1.446582         0.043403         0.105149
 C         2.315999        -1.266860         0.205078
 C         3.289318        -0.076162        -0.120878
 C         4.732258         0.497985        -0.068558
 C         4.248194         1.903411        -0.091989
 O         2.952876         2.097275         0.725047
 C         2.573126         0.776879         0.972343
 O         2.290087         0.461407        -1.141390
 H        -0.463619        -0.533111         0.931679
 H        -0.633246         1.003722         0.228915
 H        -0.486086        -0.387953        -0.889678
 H         2.443904        -1.886131         1.108570
 H         2.178873        -1.760043        -0.712690
 H         5.273038         0.353045         0.815058
 H         5.529951         0.363401        -0.847119
 H         4.986956         2.457703         0.392397
 H         4.122434         2.229585        -1.123091
 H         2.762998         0.485525         2.030081
