19
Iteration:  4969
 C        -0.038573         0.225180         0.106440
 C         1.496667        -0.107228         0.084718
 C         2.298140        -1.329434         0.277629
 C         3.286564        -0.110444        -0.032211
 C         4.702045         0.623243        -0.098023
 C         4.151445         2.101408        -0.101853
 O         2.951596         2.081912         0.608548
 C         2.549787         0.769967         0.921873
 O         2.346545         0.177469        -1.098412
 H        -0.562189         0.251876         1.120341
 H         0.026355         1.301353        -0.267150
 H        -0.531491        -0.360921        -0.738817
 H         2.272801        -1.931783         1.224400
 H         2.220446        -1.889563        -0.649609
 H         5.130910         0.455676         0.894303
 H         5.346831         0.252709        -0.873629
 H         4.995521         2.706244         0.303136
 H         3.952133         2.344178        -1.072055
 H         2.549914         0.692044         2.025399
