19
Iteration:  1981charge 0 multiplicity 1
 C        -0.057491         0.014810         0.070290
 C         1.435797         0.072474         0.066493
 C         2.383643        -1.256721         0.313532
 C         3.262370        -0.103431        -0.129671
 C         4.592275         0.540293        -0.276244
 C         4.350358         2.085917         0.059642
 O         3.073567         2.102111         0.724516
 C         2.543366         0.789228         0.900062
 O         2.184946         0.264736        -1.121808
 H        -0.341302        -0.488262         1.062095
 H        -0.638070         0.982672         0.205137
 H        -0.472960        -0.501647        -0.785766
 H         2.489726        -1.823588         1.341998
 H         2.135201        -1.997760        -0.461862
 H         5.090502         0.106252         0.601768
 H         5.022288         0.395264        -1.287684
 H         5.185195         2.548308         0.521705
 H         4.176284         2.767035        -0.842124
 H         2.617850         0.486615         1.982302
