19
Iteration:  1719charge 0 multiplicity 1
 C        -0.001128         0.249614         0.026107
 C         1.496862        -0.022376         0.162113
 C         2.467860        -1.399961         0.206514
 C         3.281504        -0.046641         0.016079
 C         4.578066         0.491921        -0.297816
 C         4.222184         2.100892        -0.071655
 O         3.000269         2.059363         0.762494
 C         2.531836         0.731775         1.024297
 O         2.173890         0.265342        -1.084463
 H        -0.674721         0.436675         0.849517
 H         0.018758         1.200249        -0.511213
 H        -0.305140        -0.411778        -0.777174
 H         2.602088        -1.939107         1.076867
 H         2.557297        -1.984583        -0.741221
 H         5.381115         0.225763         0.304490
 H         4.796058         0.361629        -1.296955
 H         4.896939         2.711223         0.592203
 H         3.979523         2.472874        -1.126981
 H         2.555017         0.515866         2.039158
