19
Iteration:  4791
 C        -0.002518         0.159861         0.077844
 C         1.507680         0.010051         0.134554
 C         2.389265        -1.208207         0.337100
 C         3.270913        -0.117025        -0.025921
 C         4.677344         0.544294        -0.076843
 C         4.225343         1.961673        -0.080932
 O         2.868701         2.025380         0.523456
 C         2.460163         0.765358         0.913103
 O         2.331129         0.331492        -1.138947
 H        -0.366064         0.109554         1.170162
 H        -0.350419         1.152650        -0.373521
 H        -0.640738        -0.648025        -0.485521
 H         2.706129        -1.570545         1.384482
 H         2.318357        -2.000393        -0.417587
 H         5.309784         0.159399         0.692911
 H         5.255453         0.254567        -0.953381
 H         4.913743         2.563834         0.570220
 H         4.328479         2.345414        -1.101631
 H         2.508513         0.583336         2.040420
