19
Iteration:  3824
 C        -0.114788         0.215963        -0.025609
 C         1.385650         0.004264         0.059659
 C         2.375807        -1.297261         0.422422
 C         3.356942        -0.147980        -0.066606
 C         4.698181         0.594651        -0.352952
 C         4.234893         2.125473         0.073583
 O         2.990096         2.032784         0.732163
 C         2.540502         0.734474         0.902698
 O         2.285359         0.181384        -1.112005
 H        -0.496395         0.214315         0.984303
 H        -0.353075         1.259508        -0.332565
 H        -0.691020        -0.535613        -0.599128
 H         2.472256        -1.508616         1.430776
 H         2.256713        -2.271077        -0.184425
 H         5.587540         0.341761         0.225063
 H         4.891501         0.631061        -1.434311
 H         5.025614         2.461341         0.756730
 H         4.220225         2.716869        -0.902661
 H         2.477242         0.552013         2.008480
