19
Iteration:  4462charge 0 multiplicity 1
 C         0.003613         0.206288         0.045457
 C         1.515405        -0.042716         0.094438
 C         2.440141        -1.354744         0.310444
 C         3.314289        -0.139494         0.050182
 C         4.680850         0.462383        -0.206673
 C         4.135195         2.020468        -0.072196
 O         2.848681         2.151691         0.567171
 C         2.490431         0.778688         1.018130
 O         2.366690         0.343506        -1.077067
 H        -0.570493        -0.080368         0.889548
 H        -0.231368         1.272747        -0.127007
 H        -0.477944        -0.203573        -0.810731
 H         2.503228        -1.967418         1.215429
 H         2.185449        -2.050711        -0.565753
 H         5.391175         0.053287         0.534753
 H         5.022060         0.125774        -1.203506
 H         4.918169         2.715311         0.411334
 H         3.950841         2.277683        -1.153034
 H         2.428978         0.817421         2.125583
