19
Iteration:  3605
 C         0.080132         0.357769         0.065285
 C         1.524795         0.005071         0.112041
 C         2.353693        -1.358798         0.329955
 C         3.274026        -0.134038        -0.079828
 C         4.569312         0.462893        -0.140081
 C         4.067096         2.109249        -0.222135
 O         2.928230         2.124684         0.793279
 C         2.583514         0.757159         1.050974
 O         2.410799         0.130140        -1.241361
 H        -0.476960        -0.145477         0.969005
 H        -0.186803         1.390343         0.095054
 H        -0.480694        -0.095920        -0.729294
 H         2.252112        -1.831101         1.418945
 H         2.250078        -2.042494        -0.489269
 H         5.142709         0.206222         0.654764
 H         5.169730         0.281735        -0.978525
 H         4.770797         2.920753         0.022408
 H         3.610079         2.378936        -1.233329
 H         2.623768         0.514025         2.078132
