19
Iteration:  2444
 C        -0.034681         0.157736         0.149369
 C         1.453057        -0.047586         0.165719
 C         2.419491        -1.273009         0.324968
 C         3.245058        -0.139502        -0.160879
 C         4.606350         0.597067        -0.301523
 C         4.265238         1.983532         0.156546
 O         2.929750         2.120451         0.635046
 C         2.582724         0.816286         0.849324
 O         2.274130         0.240006        -1.174058
 H        -0.258996         0.280391         1.195806
 H        -0.313188         1.092519        -0.363406
 H        -0.672374        -0.684770        -0.298122
 H         2.308510        -1.644304         1.327069
 H         2.226435        -1.972290        -0.401303
 H         5.220027        -0.013084         0.364305
 H         5.243871         0.486095        -1.220504
 H         5.080390         2.436870         0.822206
 H         4.211219         2.634854        -0.824135
 H         2.765278         0.532556         1.847238
