19
Iteration:   959
 C         0.001804        -0.013616        -0.037179
 C         1.409475         0.062752         0.163012
 C         2.256146        -1.282354         0.276597
 C         3.197321        -0.101899        -0.048830
 C         4.664943         0.564021        -0.227473
 C         4.336288         2.019323        -0.063783
 O         3.013231         2.072064         0.656399
 C         2.566421         0.788863         0.968899
 O         2.301218         0.398280        -1.049733
 H        -0.509715        -0.115247         0.952392
 H        -0.439302         0.878316        -0.519982
 H        -0.317591        -0.899706        -0.588252
 H         2.356712        -1.878813         1.244405
 H         1.662323        -1.740402        -0.474318
 H         5.293642         0.086311         0.596132
 H         5.151529         0.149814        -1.086378
 H         5.011418         2.334179         0.704468
 H         4.373816         2.669607        -0.887623
 H         2.722514         0.604903         2.010510
