19
Iteration:  4687
 C        -0.044772         0.148766        -0.071174
 C         1.423898        -0.081186         0.139824
 C         2.389708        -1.332602         0.304208
 C         3.286631        -0.104573         0.079061
 C         4.740349         0.535054        -0.160111
 C         4.185146         2.034411        -0.216484
 O         3.022596         2.175693         0.699985
 C         2.477341         0.824738         0.962663
 O         2.273793         0.243199        -1.015366
 H        -0.730518        -0.232316         0.671567
 H        -0.212520         1.209831        -0.111995
 H        -0.363773        -0.296242        -0.989193
 H         2.517363        -1.905343         1.201559
 H         2.216629        -1.916450        -0.674388
 H         5.351402         0.499777         0.803061
 H         5.155428         0.157248        -1.112502
 H         5.062326         2.656266         0.055477
 H         3.857229         2.260214        -1.234495
 H         2.429780         0.621430         2.024503
