19
Iteration:   161charge 0 multiplicity 1
 C        -0.101095         0.057504         0.007598
 C         1.453965         0.067770         0.131760
 C         2.402797        -1.275782         0.225314
 C         3.289855        -0.133828        -0.097204
 C         4.621752         0.488600        -0.140956
 C         4.229471         2.029321        -0.080485
 O         3.083641         2.087788         0.745426
 C         2.538612         0.838009         0.986538
 O         2.216561         0.313911        -1.129260
 H        -0.565523        -0.481260         0.846625
 H        -0.414131         1.137388         0.074408
 H        -0.322115        -0.256852        -1.019837
 H         2.582114        -1.836333         1.178685
 H         2.129604        -1.884831        -0.635761
 H         5.040450         0.230272         0.858356
 H         5.571462         0.327570        -0.760432
 H         5.043518         2.637284         0.324427
 H         3.909047         2.321193        -1.123644
 H         2.521774         0.572986         2.041954
