19
Iteration:   561
 C         0.040742         0.319635        -0.062911
 C         1.483565        -0.021118         0.085679
 C         2.219881        -1.455384         0.289426
 C         3.361217        -0.144908        -0.029695
 C         4.633352         0.653816        -0.343602
 C         4.213642         2.129558        -0.019406
 O         2.937919         2.046655         0.853057
 C         2.568079         0.658581         1.015095
 O         2.312051         0.200257        -1.125463
 H        -0.493847         0.122208         0.875411
 H        -0.077985         1.400523        -0.249633
 H        -0.334261        -0.308752        -0.877804
 H         2.321412        -1.762650         1.329011
 H         1.805523        -2.160476        -0.412144
 H         5.573460         0.421796         0.191055
 H         4.987260         0.708289        -1.388163
 H         4.934112         2.780204         0.517561
 H         3.913226         2.674990        -0.904561
 H         2.650365         0.531019         2.102853
