19
Iteration:  1696charge 0 multiplicity 1
 C        -0.073295         0.114537         0.055069
 C         1.477461        -0.056387         0.018169
 C         2.342636        -1.308995         0.298267
 C         3.303002        -0.058573        -0.099405
 C         4.617324         0.542208        -0.309316
 C         4.218449         1.971429        -0.072475
 O         3.004449         2.124143         0.785354
 C         2.561832         0.734802         0.999367
 O         2.310798         0.350346        -1.068056
 H        -0.327306         0.055948         1.078864
 H        -0.336398         1.123060        -0.157273
 H        -0.706862        -0.530473        -0.575666
 H         2.222235        -1.588094         1.271365
 H         2.183007        -2.124288        -0.427601
 H         5.347569         0.344316         0.397335
 H         5.029350         0.496159        -1.246501
 H         4.997621         2.407345         0.575765
 H         4.029998         2.526997        -1.039443
 H         2.674583         0.480783         2.005325
