19
Iteration:  3427charge 0 multiplicity 1
 C         0.059802         0.300108         0.073370
 C         1.478307         0.002243         0.060745
 C         2.370623        -1.324791         0.400854
 C         3.294997        -0.165940         0.007016
 C         4.605088         0.598454        -0.274873
 C         4.177769         2.036879         0.031752
 O         2.903490         2.070871         0.635936
 C         2.543056         0.774040         0.904050
 O         2.325866         0.149895        -1.165310
 H        -0.429988        -0.055376         0.932967
 H        -0.121420         1.408878         0.026775
 H        -0.478487        -0.134481        -0.801218
 H         2.362689        -1.783044         1.429177
 H         2.294864        -2.143260        -0.438957
 H         5.357080         0.347849         0.355625
 H         4.857181         0.493965        -1.341421
 H         4.896445         2.424593         0.774642
 H         4.186818         2.750965        -0.823871
 H         2.572096         0.549126         1.951401
