19
Iteration:  3004charge 0 multiplicity 1
 C        -0.063194         0.014444         0.025953
 C         1.426188         0.096309         0.122470
 C         2.354401        -1.341931         0.302307
 C         3.212988        -0.083697        -0.088177
 C         4.632718         0.488336        -0.298775
 C         4.338734         1.997002         0.017354
 O         3.010568         2.141763         0.658746
 C         2.607623         0.805831         1.021247
 O         2.227073         0.379735        -1.108351
 H        -0.520064        -0.117970         1.009823
 H        -0.527342         0.813223        -0.549463
 H        -0.329390        -0.956308        -0.492791
 H         2.430374        -1.684009         1.378097
 H         2.317739        -2.150543        -0.391680
 H         5.205586         0.062874         0.432539
 H         5.035712         0.380581        -1.279417
 H         5.018626         2.523821         0.682650
 H         4.202228         2.649243        -0.889943
 H         2.772820         0.480518         2.097063
