19
Iteration:  3462
 C        -0.013008         0.188338         0.084803
 C         1.505636         0.024674         0.098410
 C         2.334034        -1.313688         0.338589
 C         3.325110        -0.181968         0.053279
 C         4.661515         0.493954        -0.302153
 C         4.199551         1.996498         0.071878
 O         2.866262         2.093595         0.511242
 C         2.565178         0.790458         0.922964
 O         2.287760         0.327103        -1.088806
 H        -0.497535         0.081653         1.052871
 H        -0.184583         1.213311        -0.311903
 H        -0.399293        -0.517048        -0.665838
 H         2.472590        -1.813054         1.347511
 H         2.279098        -2.008179        -0.537794
 H         5.514006         0.325982         0.331209
 H         5.063679         0.380091        -1.343214
 H         4.804560         2.248934         0.899930
 H         4.297953         2.793701        -0.709750
 H         2.766184         0.634243         1.994216
