19
Iteration:  2485charge 0 multiplicity 1
 C        -0.077307         0.026565         0.032863
 C         1.473716        -0.045890         0.145908
 C         2.325844        -1.325057         0.329336
 C         3.282911        -0.037822        -0.035261
 C         4.590879         0.509776        -0.353576
 C         4.326593         1.966071         0.076707
 O         3.004666         2.140735         0.580900
 C         2.591220         0.850632         0.993635
 O         2.194196         0.368538        -1.066024
 H        -0.626382        -0.089797         0.940845
 H        -0.254125         0.925676        -0.478600
 H        -0.441031        -0.812375        -0.627766
 H         2.536556        -1.905562         1.261625
 H         2.383767        -2.052332        -0.539683
 H         5.415598         0.135116         0.277587
 H         4.945545         0.658978        -1.373683
 H         5.064026         2.328659         0.810351
 H         4.463378         2.655605        -0.891498
 H         2.682105         0.733047         2.142050
