19
Iteration:  2543charge 0 multiplicity 1
 C        -0.072474         0.115039         0.060714
 C         1.495098        -0.049045         0.113252
 C         2.361719        -1.263439         0.340295
 C         3.276168        -0.078110        -0.112565
 C         4.594577         0.511351        -0.212398
 C         4.311558         2.094291        -0.100980
 O         3.008630         2.091773         0.781878
 C         2.544881         0.797787         0.917690
 O         2.215803         0.250650        -1.148531
 H        -0.621427        -0.347795         0.865667
 H        -0.351859         1.198129         0.166031
 H        -0.447598        -0.234541        -0.893621
 H         2.635292        -1.598544         1.355029
 H         2.353989        -2.055804        -0.347036
 H         5.204317         0.172781         0.676076
 H         5.242187         0.348556        -1.108341
 H         5.094509         2.739471         0.464654
 H         4.069569         2.468534        -1.221764
 H         2.612303         0.346902         1.871820
