19
Iteration:  1237
 C        -0.055635         0.257582         0.140626
 C         1.497379        -0.015574         0.013858
 C         2.413464        -1.311625         0.238085
 C         3.318725        -0.114444         0.035666
 C         4.615765         0.528958        -0.198630
 C         4.256415         2.042312        -0.023774
 O         2.985167         2.088782         0.720565
 C         2.428355         0.814564         0.904855
 O         2.302017         0.183754        -1.166931
 H        -0.446450        -0.236252         1.057491
 H        -0.210043         1.346697         0.060773
 H        -0.580803        -0.260950        -0.674260
 H         2.526042        -1.859591         1.256752
 H         2.245861        -2.064695        -0.538751
 H         5.449954         0.278453         0.474476
 H         5.036777         0.478491        -1.274283
 H         4.976886         2.533079         0.557923
 H         4.026806         2.474988        -1.031085
 H         2.211784         0.576233         1.957452
