19
Iteration:  2155charge 0 multiplicity 1
 C        -0.072316        -0.039664         0.029164
 C         1.468443         0.082243         0.158954
 C         2.344835        -1.266911         0.317369
 C         3.292200        -0.146111        -0.054442
 C         4.657516         0.434819        -0.345482
 C         4.354238         2.031062         0.094229
 O         2.907115         2.128801         0.580415
 C         2.576321         0.847773         0.964367
 O         2.233562         0.386770        -1.062493
 H        -0.595987        -0.602553         0.879491
 H        -0.363177         1.046709        -0.122893
 H        -0.393739        -0.696789        -0.723060
 H         2.420609        -1.618497         1.333983
 H         2.108112        -2.024092        -0.345563
 H         5.652641         0.102458        -0.009994
 H         4.802183         0.476049        -1.432925
 H         4.964886         2.245326         0.912404
 H         4.459450         2.766512        -0.821556
 H         2.758467         0.794597         2.106286
