19
Iteration:   233charge 0 multiplicity 1
 C         0.029006         0.297146        -0.046466
 C         1.479696        -0.151431         0.054383
 C         2.383932        -1.311957         0.329518
 C         3.285435        -0.145574        -0.118250
 C         4.553445         0.515827        -0.314725
 C         4.217638         2.088871         0.070230
 O         2.942588         2.159613         0.803935
 C         2.601686         0.748714         0.996540
 O         2.235351         0.179924        -1.142301
 H        -0.321089         0.481358         0.980311
 H         0.010456         1.327573        -0.455799
 H        -0.485839        -0.440197        -0.696090
 H         2.414783        -1.708808         1.354643
 H         2.455669        -2.092007        -0.501973
 H         5.399570         0.061814         0.259002
 H         5.037308         0.569315        -1.250745
 H         4.914051         2.672547         0.772420
 H         4.064172         2.774507        -0.769848
 H         2.571793         0.465501         2.102003
