19
Iteration:   497charge 0 multiplicity 1
 C        -0.097648         0.049471         0.070052
 C         1.440139        -0.018948         0.123330
 C         2.320341        -1.216627         0.191576
 C         3.260948        -0.045999        -0.102358
 C         4.644341         0.487563        -0.163724
 C         4.298609         2.072147         0.029788
 O         3.003436         2.056756         0.689468
 C         2.559143         0.764771         0.907624
 O         2.321018         0.375428        -1.097990
 H        -0.516454        -0.633843         0.822818
 H        -0.536232         1.047716         0.188336
 H        -0.479482        -0.370659        -0.879848
 H         2.530910        -1.830243         1.088636
 H         1.906938        -1.844024        -0.636702
 H         5.055367         0.047183         0.741213
 H         5.212458         0.039002        -1.042121
 H         5.131469         2.623366         0.633324
 H         4.188287         2.558792        -0.960333
 H         2.731025         0.398582         1.938689
