19
Iteration:  3092
 C        -0.000214         0.307933         0.047541
 C         1.483604         0.029497         0.064386
 C         2.391941        -1.344407         0.324321
 C         3.307957        -0.181127         0.046192
 C         4.640405         0.577363        -0.224826
 C         4.099025         2.032668        -0.193888
 O         2.941155         2.060013         0.822898
 C         2.555363         0.699707         0.963756
 O         2.337378         0.247561        -1.170654
 H        -0.421673        -0.018624         0.956449
 H        -0.038955         1.415992         0.115412
 H        -0.587183        -0.049720        -0.841323
 H         2.461429        -1.761746         1.336969
 H         2.345645        -2.116874        -0.442924
 H         5.386586         0.525404         0.486470
 H         4.961251         0.355299        -1.247729
 H         4.892593         2.768948         0.072646
 H         3.775202         2.236606        -1.242911
 H         2.556186         0.309948         2.079637
