19
Iteration:  4665charge 0 multiplicity 1
 C        -0.030026         0.195743         0.047500
 C         1.506250         0.015201         0.118555
 C         2.391531        -1.304530         0.327810
 C         3.255060        -0.111572        -0.030899
 C         4.655326         0.472082        -0.058071
 C         4.195023         2.021125        -0.093360
 O         2.851128         2.048049         0.489033
 C         2.589158         0.763032         0.978325
 O         2.311671         0.338305        -1.090571
 H        -0.550525        -0.258214         0.889786
 H        -0.320843         1.234795        -0.011525
 H        -0.391585        -0.348783        -0.806393
 H         2.594605        -1.639131         1.320081
 H         2.481683        -2.044898        -0.529400
 H         5.189508         0.304104         0.952993
 H         5.374985         0.422759        -0.884238
 H         5.029563         2.652822         0.319617
 H         3.977509         2.295192        -1.113256
 H         2.779443         0.636786         2.036887
