19
Iteration:  4190
 C        -0.090038         0.060882         0.062881
 C         1.424939         0.029220         0.050354
 C         2.279859        -1.314863         0.329264
 C         3.289481        -0.117502        -0.035666
 C         4.687754         0.555948        -0.169953
 C         4.208231         2.062027        -0.132957
 O         3.086400         2.135113         0.829943
 C         2.538462         0.781281         0.889050
 O         2.332072         0.263802        -1.208902
 H        -0.445263        -0.000246         1.117241
 H        -0.559282         1.003766        -0.341251
 H        -0.560955        -0.784462        -0.477121
 H         2.352251        -1.709056         1.332700
 H         2.031898        -2.129411        -0.426259
 H         5.184318         0.329748         0.829580
 H         5.361727         0.345796        -1.056402
 H         4.955495         2.736544         0.256305
 H         3.938879         2.578662        -1.034818
 H         2.511710         0.614257         1.979223
