19
Iteration:  4889
 C        -0.013474         0.002378        -0.200268
 C         1.434031         0.026305         0.234770
 C         2.295904        -1.208106         0.399904
 C         3.239965        -0.080459         0.082938
 C         4.610665         0.491573        -0.316105
 C         4.228482         2.068838        -0.059198
 O         3.009290         2.118154         0.625631
 C         2.657600         0.868260         1.036156
 O         2.276530         0.233641        -1.018523
 H        -0.614746        -0.299949         0.753654
 H        -0.425600         0.963499        -0.593521
 H        -0.177643        -0.801050        -1.061429
 H         2.348623        -1.940518         1.234159
 H         2.036599        -1.827900        -0.525712
 H         5.525034         0.295111         0.185873
 H         4.702244         0.209993        -1.364405
 H         5.140409         2.399798         0.414395
 H         4.384214         2.675849        -1.028923
 H         2.593099         0.726542         2.179126
