19
Iteration:  4336
 C         0.005644         0.102052         0.123230
 C         1.486477        -0.014298         0.163875
 C         2.334815        -1.331124         0.241788
 C         3.307288        -0.111997         0.020153
 C         4.625016         0.529482        -0.173343
 C         4.269624         2.037757         0.058864
 O         2.894480         2.109159         0.385579
 C         2.542372         0.782192         0.913161
 O         2.320190         0.329774        -1.045640
 H        -0.620438        -0.205869         1.013969
 H        -0.413850         1.122985        -0.071836
 H        -0.547001        -0.543093        -0.635724
 H         2.248142        -1.887252         1.195989
 H         2.132851        -1.799882        -0.673631
 H         5.309192         0.202157         0.587561
 H         5.137740         0.401086        -1.131713
 H         4.874821         2.368632         0.901883
 H         4.514461         2.684398        -0.801097
 H         2.598841         0.757082         2.028527
