19
Iteration:  2117
 C        -0.063452         0.167390         0.165642
 C         1.471206        -0.027807         0.060122
 C         2.389335        -1.296314         0.293356
 C         3.302373        -0.156367        -0.098015
 C         4.631872         0.504681        -0.289520
 C         4.268901         2.058502         0.020195
 O         2.937050         2.188120         0.760713
 C         2.508761         0.800388         0.931616
 O         2.285302         0.208794        -1.190775
 H        -0.411196         0.072408         1.168150
 H        -0.375473         1.100028        -0.246590
 H        -0.503975        -0.488419        -0.662346
 H         2.644006        -1.659235         1.306160
 H         2.294275        -2.149682        -0.484724
 H         5.378836        -0.019062         0.335355
 H         4.991888         0.540048        -1.352913
 H         5.093200         2.604961         0.680113
 H         4.230004         2.650771        -0.852352
 H         2.512898         0.443211         2.022016
