19
Iteration:   298charge 0 multiplicity 1
 C         0.031901        -0.043598         0.004601
 C         1.478604         0.010030         0.029546
 C         2.295792        -1.316270         0.232285
 C         3.231043        -0.057464         0.046544
 C         4.582465         0.419435        -0.231199
 C         4.316461         2.037767        -0.093197
 O         3.031884         2.089963         0.754883
 C         2.453907         0.820189         1.030139
 O         2.301839         0.506161        -1.098508
 H        -0.222514        -0.350327         1.026490
 H        -0.541056         0.890021        -0.079895
 H        -0.385126        -0.629114        -0.807072
 H         2.315632        -1.932258         1.151272
 H         2.410706        -1.751868        -0.789241
 H         5.392771         0.022112         0.465346
 H         4.936720         0.153926        -1.203018
 H         5.152717         2.555154         0.534043
 H         4.185289         2.358008        -1.130940
 H         2.257417         0.766747         2.144557
