19
Iteration:  3310
 C        -0.074914         0.183359        -0.019169
 C         1.423643        -0.067969         0.073902
 C         2.441403        -1.279087         0.351510
 C         3.274214        -0.084311        -0.083237
 C         4.652485         0.538113        -0.197511
 C         4.239542         2.027725        -0.098043
 O         3.033465         2.118110         0.733228
 C         2.563168         0.709445         0.989644
 O         2.200178         0.275313        -1.094529
 H        -0.599700        -0.028857         0.890071
 H        -0.219934         1.262123        -0.349720
 H        -0.507109        -0.445961        -0.838475
 H         2.582696        -1.482038         1.370505
 H         2.349889        -2.151983        -0.362378
 H         5.201422         0.349868         0.789755
 H         5.251081         0.395344        -1.195192
 H         4.950764         2.754907         0.349754
 H         3.818845         2.272867        -1.144995
 H         2.721641         0.500640         2.102119
