19
Iteration:  3764charge 0 multiplicity 1
 C        -0.118880         0.185471         0.105108
 C         1.405968        -0.009922         0.178257
 C         2.476207        -1.309592         0.315683
 C         3.205062        -0.089414        -0.096455
 C         4.611670         0.585251        -0.217712
 C         4.406479         2.050419         0.117220
 O         2.927554         2.035983         0.488381
 C         2.517524         0.700935         0.914487
 O         2.274023         0.296634        -1.127680
 H        -0.560846        -0.240210         0.990648
 H        -0.185807         1.270671        -0.010386
 H        -0.457502        -0.269876        -0.844815
 H         2.580167        -1.674413         1.393476
 H         2.397397        -2.164190        -0.348468
 H         5.463518         0.097044         0.387790
 H         4.984456         0.623458        -1.323208
 H         4.837554         2.511785         0.963687
 H         4.556440         2.616026        -0.763738
 H         2.628051         0.598518         2.010450
