19
Iteration:   991
 C        -0.081155         0.101114        -0.086270
 C         1.453807         0.019170         0.061300
 C         2.497535        -1.240614         0.361191
 C         3.221269        -0.015945         0.024548
 C         4.628148         0.441768        -0.290735
 C         4.345361         1.984774        -0.038290
 O         3.016609         2.104574         0.829058
 C         2.534456         0.798133         0.961728
 O         2.139263         0.305153        -1.157279
 H        -0.599301         0.241181         0.923901
 H        -0.311323         0.970823        -0.764559
 H        -0.499435        -0.791016        -0.593324
 H         2.638261        -1.629045         1.505941
 H         2.329061        -1.951538        -0.452163
 H         5.472127         0.104671         0.438294
 H         4.775641         0.073690        -1.314364
 H         5.030543         2.489626         0.643894
 H         4.281101         2.478861        -0.971247
 H         2.715547         0.452470         1.951498
