19
Iteration:  3139charge 0 multiplicity 1
 C        -0.034601         0.177844         0.015027
 C         1.502582        -0.009423         0.109713
 C         2.349485        -1.277229         0.303298
 C         3.341492        -0.145730         0.031735
 C         4.654117         0.492683        -0.244906
 C         4.178927         2.053310        -0.104095
 O         2.941474         2.044210         0.681776
 C         2.623601         0.732361         0.938775
 O         2.225889         0.366946        -1.059530
 H        -0.696253        -0.048203         0.928695
 H        -0.255432         1.262094        -0.259623
 H        -0.238960        -0.563505        -0.803822
 H         2.255219        -1.747952         1.368502
 H         2.269835        -2.103017        -0.519015
 H         5.400811         0.298845         0.618071
 H         5.008994         0.326691        -1.294098
 H         4.960504         2.716156         0.380696
 H         3.993111         2.534372        -1.082816
 H         2.759180         0.511156         2.149334
