19
Iteration:  2412
 C         0.021578         0.189541         0.208101
 C         1.514295         0.000921         0.021871
 C         2.358347        -1.308448         0.280696
 C         3.295495        -0.170856         0.068852
 C         4.668645         0.623224        -0.300430
 C         4.256856         1.990551         0.035658
 O         2.947628         2.082243         0.645908
 C         2.502881         0.823372         0.950571
 O         2.248573         0.240187        -1.242916
 H        -0.192471        -0.147764         1.214615
 H        -0.190036         1.261627        -0.028558
 H        -0.634868        -0.552910        -0.394342
 H         2.093661        -1.776381         1.226328
 H         2.311515        -1.984938        -0.474666
 H         5.367692         0.254521         0.448617
 H         4.904460         0.410057        -1.376676
 H         4.835944         2.670103         0.685360
 H         4.177413         2.469051        -0.940415
 H         2.296193         0.508225         2.034811
