19
Iteration:    19charge 0 multiplicity 1
 C         0.018157         0.175960         0.171060
 C         1.518217        -0.047106         0.036227
 C         2.166117        -1.432772         0.264428
 C         3.228725        -0.160609        -0.146262
 C         4.624723         0.630737        -0.113234
 C         4.232680         2.129167        -0.086449
 O         2.987432         2.082949         0.714394
 C         2.535681         0.725456         0.977833
 O         2.388074         0.332485        -1.229293
 H        -0.112829         0.134416         1.252462
 H        -0.251889         1.204026        -0.122094
 H        -0.562178        -0.581644        -0.329367
 H         2.165625        -1.630669         1.330386
 H         1.948283        -2.294939        -0.420324
 H         5.097903         0.439239         0.834299
 H         5.464107         0.327490        -0.840422
 H         5.130392         2.587383         0.399616
 H         4.104742         2.489769        -1.177254
 H         2.640096         0.479203         2.091460
