19
Iteration:  4546charge 0 multiplicity 1
 C        -0.068872        -0.064606        -0.049614
 C         1.401502        -0.056076         0.092903
 C         2.343443        -1.302850         0.391097
 C         3.264748        -0.089528         0.077920
 C         4.595649         0.519714        -0.341317
 C         4.472149         2.019328         0.123014
 O         3.001025         2.246259         0.496278
 C         2.491394         0.939635         0.925083
 O         2.259873         0.248005        -1.015829
 H        -0.476233        -0.122192         1.022443
 H        -0.394583         0.924756        -0.495693
 H        -0.369051        -1.015813        -0.591967
 H         2.303235        -1.823557         1.327392
 H         2.288780        -1.846164        -0.604691
 H         5.517774         0.010993        -0.028497
 H         4.501588         0.473163        -1.386765
 H         4.985865         2.278059         1.019868
 H         4.577213         2.815951        -0.579839
 H         2.415090         0.865754         2.034215
