19
Iteration:  1544charge 0 multiplicity 1
 C         0.025416         0.330567         0.003883
 C         1.511159        -0.050638         0.134482
 C         2.528983        -1.373110         0.251527
 C         3.244649        -0.056511        -0.130828
 C         4.554610         0.557251        -0.220883
 C         4.116972         1.967619        -0.111760
 O         3.012491         2.095293         0.824361
 C         2.526157         0.724480         1.016006
 O         2.225595         0.262068        -1.115866
 H        -0.336099         0.274637         1.017171
 H         0.066906         1.314637        -0.433402
 H        -0.404919        -0.531062        -0.557863
 H         2.545287        -1.857444         1.196504
 H         2.448250        -2.052894        -0.617882
 H         4.952873         0.050320         0.597433
 H         5.181465         0.399443        -1.009812
 H         4.828275         2.731035         0.208801
 H         3.808711         2.368915        -1.077081
 H         2.526497         0.439227         2.069446
