19
Iteration:   425charge 0 multiplicity 1
 C        -0.066528         0.150963        -0.112285
 C         1.457023        -0.011051         0.210787
 C         2.334990        -1.300407         0.219019
 C         3.283075        -0.159608        -0.111069
 C         4.669268         0.505511        -0.256926
 C         4.163628         2.070685         0.022824
 O         3.004816         2.114665         0.828711
 C         2.613689         0.716230         0.923832
 O         2.274703         0.342290        -1.046506
 H        -0.636584         0.292690         0.844083
 H        -0.156785         1.130442        -0.586169
 H        -0.564453        -0.729574        -0.592281
 H         2.498914        -1.892658         1.096874
 H         2.155353        -1.977866        -0.671088
 H         5.477232         0.203511         0.484369
 H         5.074614         0.404691        -1.277778
 H         4.952723         2.594386         0.469738
 H         4.095047         2.505599        -1.006359
 H         2.692666         0.542018         2.012975
