19
Iteration:    27charge 0 multiplicity 1
 C         0.027165         0.170626         0.219772
 C         1.463547        -0.006212         0.025543
 C         2.195118        -1.341016         0.244292
 C         3.324447        -0.115984        -0.128702
 C         4.658463         0.583727        -0.083650
 C         4.226003         2.062497        -0.076115
 O         2.944189         2.086432         0.723749
 C         2.600060         0.701050         0.832960
 O         2.368335         0.282078        -1.197564
 H        -0.162546         0.213905         1.341951
 H        -0.231131         1.193814        -0.160778
 H        -0.758310        -0.538359        -0.215997
 H         2.084747        -1.793569         1.287820
 H         1.969226        -2.113777        -0.516273
 H         5.038403         0.380329         1.047161
 H         5.387521         0.372509        -0.874788
 H         4.912769         2.807772         0.407181
 H         3.916619         2.530914        -1.009103
 H         2.434964         0.442154         1.887615
