19
Iteration:  3208
 C        -0.088108        -0.029103         0.050574
 C         1.402192         0.008154         0.178050
 C         2.342417        -1.262178         0.319101
 C         3.234053        -0.029801        -0.157303
 C         4.672695         0.550011        -0.192377
 C         4.419927         2.019154        -0.005642
 O         3.024080         2.151786         0.673850
 C         2.547496         0.767121         0.885504
 O         2.192638         0.314115        -1.126976
 H        -0.743810        -0.181426         0.977084
 H        -0.397873         0.940930        -0.299059
 H        -0.278925        -0.758002        -0.720473
 H         2.490800        -1.601414         1.389075
 H         2.223206        -2.074922        -0.361088
 H         5.187021        -0.089234         0.631241
 H         5.234037         0.317976        -1.097780
 H         5.044244         2.513335         0.672679
 H         4.321796         2.664773        -0.861320
 H         2.605108         0.591087         2.014037
