19
Iteration:  4073
 C        -0.110910        -0.002870         0.027753
 C         1.371445         0.007964        -0.022723
 C         2.330239        -1.239339         0.410581
 C         3.273167        -0.072223         0.007456
 C         4.609971         0.549966        -0.246898
 C         4.319814         2.045220        -0.068953
 O         3.092107         2.091913         0.893128
 C         2.523388         0.829570         0.898088
 O         2.324803         0.262863        -1.222674
 H        -0.409798        -0.248031         1.009315
 H        -0.438404         1.024930        -0.254613
 H        -0.571635        -0.684554        -0.696563
 H         2.291076        -1.583249         1.419893
 H         2.396485        -1.997724        -0.457173
 H         5.450782         0.154165         0.246678
 H         4.973711         0.458954        -1.314654
 H         4.945583         2.778258         0.369992
 H         4.013065         2.617274        -0.962569
 H         2.401817         0.435823         1.887599
