19
Iteration:  2710
 C        -0.081059         0.007379         0.077454
 C         1.498413         0.011791         0.088788
 C         2.337408        -1.257985         0.247875
 C         3.314180        -0.098110        -0.024121
 C         4.630333         0.479542        -0.277116
 C         4.294925         1.995973         0.048970
 O         2.954319         2.122003         0.561483
 C         2.502823         0.821805         0.981652
 O         2.313212         0.360485        -1.086441
 H        -0.386040        -0.355148         1.106907
 H        -0.500418         0.998719         0.113509
 H        -0.549151        -0.548055        -0.686455
 H         2.463261        -1.612433         1.233586
 H         2.199788        -2.077254        -0.518108
 H         5.429558         0.246720         0.512175
 H         5.013161         0.336968        -1.286644
 H         4.897131         2.254915         0.921697
 H         4.311964         2.725440        -0.788687
 H         2.400749         0.840222         2.094997
