19
Iteration:  2562charge 0 multiplicity 1
 C        -0.052667         0.228362         0.017130
 C         1.441778        -0.004093         0.190519
 C         2.494639        -1.367560         0.229430
 C         3.293437        -0.071219        -0.059189
 C         4.664741         0.548997        -0.165679
 C         4.124048         1.990082        -0.096891
 O         3.021176         2.101649         0.673531
 C         2.545970         0.768003         0.990993
 O         2.205982         0.274029        -1.110596
 H        -0.441128        -0.275390         0.856159
 H        -0.267606         1.273151         0.109727
 H        -0.458255        -0.225707        -0.927268
 H         2.489645        -1.918896         1.234523
 H         2.177012        -2.089883        -0.510312
 H         5.322347         0.390490         0.679965
 H         5.394085         0.311612        -0.970187
 H         4.924169         2.542023         0.249051
 H         3.839508         2.358978        -1.108890
 H         2.763257         0.564123         2.138197
