19
Iteration:  4513
 C         0.012356         0.106437         0.128718
 C         1.457967         0.016223         0.059334
 C         2.400312        -1.176100         0.467950
 C         3.250621        -0.127946        -0.193268
 C         4.727483         0.530892        -0.179357
 C         4.333556         2.021805         0.122446
 O         2.874225         2.130407         0.597962
 C         2.451632         0.802732         0.759680
 O         2.255628         0.178305        -1.189135
 H        -0.264900        -0.361425         1.148199
 H        -0.482122         1.112431         0.079417
 H        -0.560088        -0.463152        -0.683545
 H         2.490414        -1.441715         1.511391
 H         2.247495        -2.129268        -0.115605
 H         5.329310         0.116594         0.634830
 H         5.205011         0.372590        -1.110713
 H         4.938931         2.441468         0.916583
 H         4.478577         2.669965        -0.744746
 H         2.451420         0.705148         1.856026
