19
Iteration:  4355
 C         0.006071         0.021700        -0.000953
 C         1.462245         0.069929         0.118451
 C         2.270999        -1.251246         0.311112
 C         3.269325        -0.108652         0.015404
 C         4.664493         0.481468        -0.267814
 C         4.255327         2.025288        -0.008006
 O         2.884046         2.132310         0.606668
 C         2.572403         0.875708         1.059201
 O         2.346204         0.275124        -1.125425
 H        -0.320705        -0.184475         1.031517
 H        -0.441361         0.999210        -0.391658
 H        -0.311353        -0.906938        -0.577208
 H         2.305556        -1.680005         1.329683
 H         2.199396        -1.987338        -0.555884
 H         5.472380        -0.036000         0.409381
 H         4.937408         0.232999        -1.417739
 H         5.039889         2.504746         0.596636
 H         4.289137         2.599539        -0.931337
 H         2.655687         0.627018         2.111484
