19
Iteration:   675charge 0 multiplicity 1
 C        -0.029708         0.104980        -0.059471
 C         1.444814         0.005115         0.084014
 C         2.346604        -1.242169         0.319779
 C         3.240564        -0.094041         0.001340
 C         4.601887         0.529323        -0.304312
 C         4.338180         2.033035         0.044231
 O         2.973956         2.034276         0.799965
 C         2.570871         0.786467         0.996075
 O         2.278944         0.278296        -1.207245
 H        -0.565964        -0.269031         0.809721
 H        -0.109802         1.154795         0.179259
 H        -0.498541        -0.172100        -0.984671
 H         2.314847        -1.485947         1.394224
 H         2.255498        -2.012052        -0.414839
 H         5.468487         0.171110         0.233409
 H         4.889481         0.541078        -1.337866
 H         5.096409         2.574015         0.664835
 H         4.203389         2.605556        -0.920530
 H         2.265548         0.465628         1.948455
