19
Iteration:   482
 C        -0.121500        -0.040944         0.133992
 C         1.399043         0.111349         0.110005
 C         2.263973        -1.294589         0.131806
 C         3.211924        -0.086292        -0.128168
 C         4.681474         0.498771        -0.094403
 C         4.341592         1.972251        -0.013638
 O         3.015718         2.160204         0.763986
 C         2.587103         0.788996         0.996015
 O         2.333609         0.367982        -1.270533
 H        -0.277883        -0.627644         1.067005
 H        -0.721094         0.914923         0.109836
 H        -0.495313        -0.597899        -0.741212
 H         2.206737        -1.662534         1.190452
 H         2.360856        -1.946064        -0.699591
 H         5.255697         0.200553         0.886984
 H         5.291780         0.516404        -0.980079
 H         5.078296         2.490179         0.615443
 H         4.220243         2.356124        -1.033473
 H         2.652079         0.570005         2.089414
