19
Iteration:  1079charge 0 multiplicity 1
 C         0.010923         0.290286         0.030160
 C         1.447455        -0.141322         0.018656
 C         2.504956        -1.313440         0.205681
 C         3.244791        -0.013453         0.011136
 C         4.601313         0.442112        -0.196536
 C         4.187823         1.876421        -0.212397
 O         2.933260         2.141411         0.737069
 C         2.563414         0.832858         1.120707
 O         2.269386         0.328355        -1.066403
 H        -0.636386        -0.233143         0.767472
 H        -0.012240         1.394869         0.187731
 H        -0.587502         0.089809        -0.866507
 H         2.517928        -1.953933         1.195493
 H         2.542754        -2.037471        -0.661898
 H         5.210005         0.258245         0.661684
 H         5.232218         0.147769        -0.940335
 H         4.801430         2.606196         0.298301
 H         3.924831         2.116855        -1.191080
 H         2.558428         0.467124         2.126116
