19
Iteration:  1272
 C        -0.073664         0.153932        -0.052202
 C         1.435351        -0.061612         0.221237
 C         2.391170        -1.238492         0.274676
 C         3.280657        -0.111765        -0.089308
 C         4.583620         0.563869        -0.198416
 C         4.213188         1.952591        -0.118295
 O         2.986500         2.059788         0.745302
 C         2.624774         0.734710         0.968657
 O         2.284901         0.355648        -1.069054
 H        -0.782707        -0.356190         0.611819
 H        -0.372203         1.219449        -0.081703
 H        -0.036446        -0.231615        -1.062197
 H         2.637710        -1.370897         1.371100
 H         2.091366        -2.027605        -0.380648
 H         5.176329         0.246482         0.731591
 H         5.233899         0.318255        -1.171879
 H         4.979015         2.595335         0.205734
 H         4.030156         2.459836        -1.101562
 H         2.761060         0.630068         2.021220
