19
Iteration:  4256
 C        -0.058723         0.053403        -0.081095
 C         1.457064         0.012603         0.103786
 C         2.329748        -1.262806         0.437963
 C         3.258717        -0.086779         0.083382
 C         4.577824         0.569207        -0.393141
 C         4.299301         2.014045         0.058532
 O         2.987213         2.061849         0.614857
 C         2.565577         0.857252         0.986198
 O         2.295190         0.281073        -1.082675
 H        -0.453634        -0.096062         0.916632
 H        -0.326632         1.099188        -0.387885
 H        -0.428080        -0.715637        -0.781712
 H         2.501635        -1.813112         1.315009
 H         2.294712        -1.988655        -0.435714
 H         5.551479         0.284345         0.119816
 H         4.643232         0.470797        -1.539266
 H         5.106467         2.258124         0.706549
 H         4.410727         2.702703        -0.721197
 H         2.548530         0.481902         1.982616
