19
Iteration:  4416
 C        -0.009265         0.065622        -0.196468
 C         1.439840         0.018741         0.177681
 C         2.269357        -1.297856         0.380231
 C         3.263941        -0.145271        -0.006656
 C         4.656500         0.557057        -0.235345
 C         4.076320         2.076998        -0.212591
 O         3.208735         2.156826         0.926797
 C         2.577544         0.862734         0.951241
 O         2.261064         0.173020        -1.096309
 H        -0.761743        -0.002561         0.656722
 H        -0.337731         0.980318        -0.702593
 H        -0.280130        -0.730273        -0.927654
 H         2.349566        -1.716213         1.370157
 H         2.256118        -2.168370        -0.330510
 H         5.360933         0.395507         0.532587
 H         5.121329         0.517688        -1.138536
 H         4.886695         2.831032         0.044157
 H         3.490456         2.359965        -1.098955
 H         2.638563         0.649279         2.056423
