19
Iteration:  3515
 C        -0.146908        -0.065663         0.017760
 C         1.423231         0.077675        -0.011098
 C         2.338578        -1.169138         0.439882
 C         3.215508        -0.075632        -0.105859
 C         4.625186         0.528665        -0.226509
 C         4.386346         2.031690         0.058725
 O         3.125520         2.104932         0.698566
 C         2.581532         0.829033         0.918532
 O         2.176516         0.248928        -1.170890
 H        -0.316609        -0.243864         1.046879
 H        -0.706290         0.833859        -0.329062
 H        -0.420261        -1.000843        -0.502535
 H         2.364017        -1.358068         1.541012
 H         2.171073        -2.091219        -0.196971
 H         5.262742         0.087889         0.401504
 H         5.090207         0.514390        -1.232167
 H         5.204011         2.510673         0.679597
 H         4.367629         2.683188        -0.866320
 H         2.592182         0.577487         1.946022
