19
Iteration:  4129
 C         0.038870         0.300063        -0.029537
 C         1.464010        -0.112276         0.225159
 C         2.336553        -1.347843         0.244413
 C         3.296733        -0.097694        -0.024733
 C         4.709604         0.619042        -0.233679
 C         4.134186         2.075475        -0.092752
 O         2.877291         2.023109         0.602917
 C         2.605162         0.724286         1.030366
 O         2.281097         0.277102        -1.007189
 H        -0.604683        -0.072830         0.714313
 H         0.002779         1.392997        -0.085034
 H        -0.199022        -0.148555        -1.013647
 H         2.554141        -1.764526         1.253463
 H         2.089051        -2.032570        -0.590254
 H         5.346841         0.241805         0.573561
 H         5.237759         0.386701        -1.185414
 H         4.852933         2.651163         0.526174
 H         4.024081         2.201000        -1.196284
 H         2.658854         0.457182         2.079557
