19
Iteration:  1049
 C         0.031433         0.304385         0.081081
 C         1.523932         0.045131         0.092984
 C         2.300071        -1.291898         0.251793
 C         3.311136        -0.167763        -0.053543
 C         4.671707         0.588124        -0.212992
 C         4.123777         2.006605        -0.109291
 O         2.942826         1.990372         0.666937
 C         2.576487         0.700869         0.996318
 O         2.314811         0.278284        -1.060968
 H        -0.546135        -0.117596         0.909692
 H        -0.220515         1.349097        -0.098623
 H        -0.257799        -0.271585        -0.823120
 H         2.199890        -1.714495         1.269093
 H         2.020801        -2.098106        -0.501178
 H         5.332470         0.427658         0.760784
 H         5.332465         0.454033        -1.086567
 H         4.650799         2.744200         0.452730
 H         3.956570         2.285842        -1.153634
 H         2.473761         0.463463         2.053227
