19
Iteration:  3064charge 0 multiplicity 1
 C         0.024473         0.122060         0.046502
 C         1.471672         0.040918         0.085141
 C         2.221612        -1.295872         0.332356
 C         3.300059        -0.186352        -0.027105
 C         4.618693         0.548737        -0.285658
 C         4.101969         2.070620        -0.136087
 O         3.040221         2.093531         0.828060
 C         2.550033         0.731513         0.910931
 O         2.385820         0.282989        -1.115002
 H        -0.391230        -0.016283         1.089502
 H        -0.107179         1.231999        -0.001112
 H        -0.438748        -0.404463        -0.782864
 H         2.149921        -1.633556         1.397284
 H         2.158977        -2.082714        -0.496086
 H         5.488864         0.445321         0.551906
 H         5.226874         0.395739        -1.230439
 H         4.867275         2.814627         0.201128
 H         3.782319         2.407200        -1.129630
 H         2.511499         0.485517         1.915971
