19
Iteration:  2189charge 0 multiplicity 1
 C         0.002689        -0.015467         0.044871
 C         1.442110        -0.038992         0.092946
 C         2.444497        -1.285234         0.337366
 C         3.186536        -0.065215        -0.073907
 C         4.575658         0.578632        -0.300162
 C         4.496552         2.020431         0.108477
 O         2.999226         2.126477         0.616613
 C         2.536996         0.897423         0.960536
 O         2.061935         0.237934        -1.138969
 H        -0.512065        -0.359173         0.987219
 H        -0.252513         1.090692        -0.029794
 H        -0.279086        -0.343683        -0.925095
 H         2.364542        -1.424991         1.392347
 H         2.348390        -2.146214        -0.302078
 H         5.388888         0.126728         0.296782
 H         4.819531         0.476559        -1.347504
 H         5.148971         2.272378         0.891214
 H         4.685430         2.779291        -0.712509
 H         2.603293         0.649600         2.093835
