19
Iteration:  4271charge 0 multiplicity 1
 C        -0.063413         0.117649         0.046967
 C         1.445756        -0.034670         0.072435
 C         2.265250        -1.273281         0.396221
 C         3.346567        -0.121461        -0.036683
 C         4.686945         0.596127        -0.340361
 C         4.341144         2.113767         0.116631
 O         2.978379         2.172181         0.660651
 C         2.546616         0.765924         0.891552
 O         2.247522         0.126240        -1.157534
 H        -0.563274        -0.248108         1.000235
 H        -0.355239         1.187269        -0.197906
 H        -0.417730        -0.496360        -0.864152
 H         2.108543        -1.511140         1.512540
 H         2.131144        -2.149663        -0.229187
 H         5.497928         0.126110         0.115382
 H         4.850514         0.548246        -1.405227
 H         4.958040         2.374026         1.022383
 H         4.280523         2.776634        -0.795183
 H         2.594263         0.697998         2.059623
