19
Iteration:  1176
 C        -0.100035         0.139455        -0.003457
 C         1.452373        -0.101564         0.122376
 C         2.438288        -1.295344         0.253206
 C         3.252509        -0.000731        -0.005994
 C         4.592394         0.443137        -0.220769
 C         4.324368         2.025123         0.004299
 O         3.003549         2.108134         0.644918
 C         2.565576         0.827562         1.016608
 O         2.201779         0.309226        -1.113388
 H        -0.601296         0.362872         0.977567
 H        -0.258705         1.091565        -0.602331
 H        -0.712508        -0.635892        -0.480946
 H         2.621044        -1.852356         1.152420
 H         2.323999        -1.905927        -0.658119
 H         5.292927        -0.027940         0.480742
 H         5.067139         0.160618        -1.204641
 H         5.176816         2.515060         0.645359
 H         4.237718         2.631253        -0.929681
 H         2.781215         0.584202         2.154676
