19
Iteration:  2862charge 0 multiplicity 1
 C        -0.042287         0.036733         0.049846
 C         1.464579         0.022611         0.062100
 C         2.331281        -1.264497         0.289940
 C         3.249978        -0.089629        -0.029288
 C         4.561755         0.578627        -0.241174
 C         4.216617         2.040806        -0.115533
 O         3.146043         2.081151         0.875780
 C         2.558278         0.775335         0.956549
 O         2.275977         0.304471        -1.203154
 H        -0.492448        -0.235656         1.045574
 H        -0.284763         0.997889        -0.335105
 H        -0.385026        -0.692946        -0.680856
 H         2.300241        -1.594497         1.383623
 H         2.275310        -2.017749        -0.540929
 H         4.969101         0.191089         0.673490
 H         5.097226         0.232696        -1.088799
 H         5.004997         2.635145         0.214932
 H         3.853118         2.538962        -1.061278
 H         2.358693         0.629360         1.994391
