19
Iteration:  2392
 C        -0.006530         0.183512         0.101018
 C         1.456580        -0.044753         0.146552
 C         2.358774        -1.296216         0.271239
 C         3.257806        -0.113555        -0.059121
 C         4.649355         0.472357        -0.244269
 C         4.215555         2.075624        -0.081160
 O         2.915817         2.096255         0.655264
 C         2.566971         0.783648         0.942388
 O         2.316157         0.330543        -1.082277
 H        -0.405581        -0.369915         0.985937
 H        -0.281846         1.278396        -0.004384
 H        -0.454547        -0.436430        -0.726209
 H         2.603279        -1.766450         1.299858
 H         2.273004        -2.056035        -0.469845
 H         5.344652         0.026966         0.530439
 H         5.092274         0.262334        -1.259292
 H         5.102913         2.487144         0.379285
 H         3.942576         2.596449        -0.904739
 H         2.609945         0.477375         2.113860
