19
Iteration:  2147
 C        -0.021113         0.008681         0.082065
 C         1.491279         0.030255         0.080013
 C         2.251666        -1.271072         0.341774
 C         3.320278        -0.108777         0.000041
 C         4.646874         0.530900        -0.377551
 C         4.352689         2.000435         0.069586
 O         2.930334         2.120738         0.556021
 C         2.557850         0.785528         1.015541
 O         2.244476         0.385527        -1.085663
 H        -0.511273        -0.435069         0.970957
 H        -0.631057         0.898311        -0.153679
 H        -0.169658        -0.676277        -0.787708
 H         2.348900        -1.648121         1.408153
 H         2.224175        -2.112709        -0.419997
 H         5.437979         0.043373         0.207015
 H         4.784412         0.593729        -1.435619
 H         4.997157         2.312498         0.880338
 H         4.414580         2.691135        -0.741379
 H         2.635185         0.580433         2.039344
