19
Iteration:   115charge 0 multiplicity 1
 C         0.010384         0.060749        -0.160545
 C         1.445980         0.078595         0.109803
 C         2.269038        -1.266027         0.393629
 C         3.273369        -0.097929        -0.024315
 C         4.555127         0.525269        -0.425091
 C         4.145402         2.076520        -0.040900
 O         3.122126         2.089832         0.873182
 C         2.573778         0.793521         0.997289
 O         2.317947         0.270934        -1.055137
 H        -0.330543        -0.513743         0.757773
 H        -0.470263         1.094182        -0.175934
 H        -0.107891        -0.479042        -1.151645
 H         2.324015        -1.595152         1.464219
 H         2.036774        -2.101767        -0.345072
 H         5.529047         0.166003         0.120523
 H         4.711938         0.169135        -1.487843
 H         5.055005         2.366097         0.508541
 H         4.045834         2.598979        -0.981669
 H         2.415829         0.531561         2.048407
