19
Iteration:  3567
 C        -0.083024         0.163642        -0.033897
 C         1.442548        -0.038815         0.123355
 C         2.403095        -1.333725         0.335194
 C         3.256800        -0.060443         0.108767
 C         4.687899         0.522477        -0.263400
 C         4.301354         2.067018        -0.160497
 O         2.986304         1.979484         0.588504
 C         2.547244         0.764121         1.067281
 O         2.214259         0.401618        -1.059344
 H        -0.539147        -0.247759         0.806411
 H        -0.275067         1.266886        -0.197931
 H        -0.294966        -0.503994        -0.915124
 H         2.442604        -1.638104         1.315463
 H         2.325963        -2.156653        -0.435032
 H         5.408283         0.224124         0.643954
 H         4.985211         0.112700        -1.281597
 H         5.033869         2.712053         0.429808
 H         4.118684         2.524083        -1.132253
 H         2.435792         0.649939         2.213420
