19
Iteration:  2201charge 0 multiplicity 1
 C        -0.058808         0.050247         0.056608
 C         1.459908        -0.050780         0.070924
 C         2.357094        -1.258291         0.420812
 C         3.305011        -0.059033        -0.045210
 C         4.651721         0.516286        -0.342554
 C         4.384394         2.082781         0.177292
 O         3.033017         2.173392         0.643116
 C         2.545931         0.821823         0.854525
 O         2.100026         0.228214        -1.197756
 H        -0.390830        -0.457777         0.999119
 H        -0.345254         1.119435         0.101985
 H        -0.653268        -0.558305        -0.631118
 H         2.668005        -1.663093         1.383038
 H         2.191386        -2.127016        -0.293627
 H         5.400537        -0.118564         0.180714
 H         4.837377         0.468490        -1.395395
 H         5.023553         2.412314         0.948571
 H         4.359383         2.771531        -0.656043
 H         2.557598         0.547260         1.954243
