19
Iteration:  3475charge 0 multiplicity 1
 C         0.026190         0.158754         0.020763
 C         1.481947         0.063872         0.147524
 C         2.440534        -1.263891         0.287769
 C         3.288270        -0.062431        -0.028565
 C         4.533533         0.549774        -0.230761
 C         4.326723         1.974707         0.082630
 O         2.933896         2.091229         0.536421
 C         2.542199         0.812716         0.961120
 O         2.213808         0.215246        -1.103496
 H        -0.343660        -0.006346         1.101811
 H        -0.419615         1.067518        -0.346286
 H        -0.398394        -0.685472        -0.506625
 H         2.523379        -1.878321         1.227401
 H         2.216525        -1.867183        -0.547560
 H         5.196948        -0.071233         0.539102
 H         4.811574         0.347973        -1.283618
 H         4.984532         2.358388         0.810920
 H         4.438233         2.491537        -0.887849
 H         2.476015         0.592807         2.108625
