19
Iteration:   165
 C        -0.052793         0.080391         0.045125
 C         1.450637         0.051256         0.154350
 C         2.366210        -1.264565         0.224906
 C         3.257378        -0.135217        -0.113979
 C         4.643029         0.521223        -0.114554
 C         4.246846         2.014606        -0.092317
 O         3.027139         2.072913         0.735309
 C         2.544606         0.816266         0.971507
 O         2.241727         0.332959        -1.138175
 H        -0.552881        -0.512269         0.782924
 H        -0.336240         1.087279         0.046255
 H        -0.153333        -0.358245        -0.939393
 H         2.447214        -1.913708         1.082505
 H         2.070270        -1.907617        -0.591109
 H         4.989391         0.284327         0.866805
 H         5.496639         0.405764        -0.762087
 H         5.150441         2.607540         0.195377
 H         4.100298         2.327337        -1.157947
 H         2.536891         0.533427         2.057451
