19
Iteration:  3399
 C         0.009634         0.191057        -0.026693
 C         1.407375        -0.059060         0.068820
 C         2.434951        -1.285388         0.395484
 C         3.222000        -0.082297        -0.048044
 C         4.731430         0.545193        -0.228608
 C         4.279435         2.042756        -0.022706
 O         2.981976         2.142961         0.781617
 C         2.533676         0.818646         0.927660
 O         2.154260         0.162900        -1.169617
 H        -0.641414        -0.104751         0.848048
 H        -0.113816         1.267034        -0.147031
 H        -0.401190        -0.277592        -0.920526
 H         2.639462        -1.837421         1.308060
 H         2.285451        -2.016226        -0.328141
 H         5.310421         0.075404         0.695175
 H         5.150492         0.352714        -1.261429
 H         5.026321         2.856771         0.313677
 H         4.045444         2.354603        -1.069235
 H         2.615389         0.434741         2.014952
