19
Iteration:  2010charge 0 multiplicity 1
 C        -0.060950         0.081162        -0.041227
 C         1.450221        -0.082580         0.143513
 C         2.384606        -1.262618         0.299186
 C         3.263420        -0.071372        -0.139337
 C         4.646306         0.500045        -0.288792
 C         4.222968         2.056513        -0.056622
 O         3.095868         2.153463         0.824285
 C         2.579735         0.801720         1.008508
 O         2.174540         0.307020        -1.087985
 H        -0.598389        -0.523807         0.689362
 H        -0.211903         1.135678         0.135065
 H        -0.418722        -0.399836        -1.032673
 H         2.446484        -1.536451         1.350433
 H         2.236024        -2.150540        -0.420828
 H         5.252072         0.105103         0.572899
 H         5.078461         0.418876        -1.332669
 H         5.128278         2.691985         0.193201
 H         3.764121         2.301699        -1.062747
 H         2.685603         0.372227         2.064845
