19
Iteration:  3094charge 0 multiplicity 1
 C         0.003662         0.309288         0.050730
 C         1.483523         0.028508         0.080194
 C         2.405571        -1.334563         0.314864
 C         3.306716        -0.204656         0.043379
 C         4.638898         0.567990        -0.231722
 C         4.084257         2.046376        -0.185647
 O         2.942018         2.062979         0.819085
 C         2.549965         0.711555         0.951474
 O         2.334241         0.249422        -1.158349
 H        -0.481829        -0.044612         0.953199
 H         0.000322         1.459850         0.060798
 H        -0.597339        -0.032408        -0.864352
 H         2.474730        -1.799568         1.363927
 H         2.386520        -2.163092        -0.486534
 H         5.386331         0.512333         0.588662
 H         4.965783         0.343395        -1.293376
 H         4.934460         2.738301         0.067028
 H         3.798931         2.207359        -1.213329
 H         2.564657         0.332922         2.012042
