19
Iteration:  3172
 C        -0.030264         0.009245         0.134789
 C         1.461147         0.002126         0.051737
 C         2.369738        -1.208173         0.286719
 C         3.224122        -0.049171         0.008270
 C         4.540734         0.464465        -0.256741
 C         4.349535         1.998694        -0.075823
 O         3.002226         2.155886         0.820250
 C         2.519080         0.858260         0.894637
 O         2.320152         0.298344        -1.202844
 H        -0.469730        -0.331662         1.119611
 H        -0.472248         0.891258        -0.382724
 H        -0.326559        -0.777792        -0.595928
 H         2.119789        -1.551059         1.362892
 H         2.273566        -2.010912        -0.520517
 H         5.364735         0.139563         0.461013
 H         4.806187         0.247136        -1.305413
 H         5.160084         2.492477         0.536976
 H         4.321166         2.352530        -1.074491
 H         2.382303         0.436136         2.032333
