19
Iteration:  3717
 C        -0.054457        -0.070168         0.102562
 C         1.459425         0.088764         0.028952
 C         2.311099        -1.205140         0.339704
 C         3.219670        -0.021032        -0.087454
 C         4.571212         0.457464        -0.255299
 C         4.400253         2.007727         0.088469
 O         3.044809         2.139726         0.706392
 C         2.484247         0.925415         0.936157
 O         2.278321         0.242287        -1.208135
 H        -0.147154        -0.452376         1.119360
 H        -0.623773         0.866474        -0.217516
 H        -0.272102        -0.918037        -0.634465
 H         2.551764        -1.576204         1.388472
 H         2.028110        -2.147818        -0.346057
 H         5.325539        -0.083847         0.323658
 H         4.836070         0.352996        -1.252847
 H         5.273867         2.411888         0.678054
 H         4.199129         2.528785        -0.841573
 H         2.484031         0.770161         2.003106
