19
Iteration:  3623charge 0 multiplicity 1
 C         0.033308         0.331748         0.111047
 C         1.462958        -0.028347        -0.006570
 C         2.311328        -1.287198         0.348338
 C         3.334431        -0.144450         0.062446
 C         4.649649         0.656326        -0.228550
 C         4.034649         1.991261        -0.179775
 O         3.014891         2.025259         0.817712
 C         2.497675         0.761536         0.860170
 O         2.408161         0.139318        -1.150860
 H        -0.304655         0.030203         1.073954
 H        -0.052973         1.442902         0.014778
 H        -0.614636        -0.067803        -0.696754
 H         2.342689        -1.615658         1.339585
 H         2.134707        -2.104845        -0.320791
 H         5.411998         0.630110         0.639709
 H         5.237522         0.371450        -1.189461
 H         4.842443         2.683759         0.161504
 H         3.588955         2.252578        -1.170579
 H         2.287115         0.414829         1.908308
