19
Iteration:   343
 C         0.044380         0.149858         0.089967
 C         1.452375        -0.032410         0.070323
 C         2.296578        -1.348243         0.172072
 C         3.282402        -0.114696        -0.129894
 C         4.621070         0.537531        -0.082474
 C         4.236414         2.148036        -0.055728
 O         3.029743         2.065948         0.739887
 C         2.547841         0.740291         0.928389
 O         2.250430         0.323632        -1.128439
 H        -0.447951        -0.437422         0.862664
 H        -0.276264         1.204434         0.173877
 H        -0.320338        -0.025286        -0.902350
 H         2.330466        -1.643371         1.252270
 H         2.055262        -2.126423        -0.526909
 H         5.007653         0.271840         0.956057
 H         5.330921         0.151029        -0.798900
 H         4.983662         2.825379         0.469039
 H         4.003784         2.335470        -1.092370
 H         2.602342         0.299636         1.941878
