19
Iteration:   808
 C        -0.034012         0.048152        -0.054699
 C         1.469659         0.063007         0.080505
 C         2.283177        -1.267333         0.318428
 C         3.217713        -0.049989        -0.124325
 C         4.592783         0.527218        -0.183510
 C         4.259614         2.002576        -0.032476
 O         3.065817         2.038965         0.826850
 C         2.631640         0.787073         0.903972
 O         2.256013         0.346416        -1.109650
 H        -0.505882        -0.001787         0.927766
 H        -0.472731         0.909300        -0.561846
 H        -0.359249        -0.787880        -0.624586
 H         2.312486        -1.687870         1.306213
 H         2.047103        -1.989101        -0.461587
 H         5.016177         0.215432         0.811947
 H         5.278960         0.503363        -0.982907
 H         5.116973         2.617290         0.369284
 H         4.019078         2.464939        -1.029050
 H         2.876158         0.316720         1.911397
