19
Iteration:  4651charge 0 multiplicity 1
 C         0.097914         0.171805         0.128813
 C         1.515532         0.006596         0.073142
 C         2.356770        -1.220723         0.337668
 C         3.340661        -0.091561        -0.068941
 C         4.644014         0.518431        -0.113782
 C         4.185405         1.983288        -0.041845
 O         2.846317         2.059539         0.498800
 C         2.463022         0.766329         0.883852
 O         2.320052         0.289941        -1.113002
 H        -0.108855        -0.195079         1.116661
 H        -0.110983         1.187742         0.043734
 H        -0.399882        -0.378956        -0.647879
 H         2.351527        -1.571045         1.401281
 H         2.044549        -2.046027        -0.265299
 H         5.123177         0.176026         0.875512
 H         5.314970         0.009349        -0.862964
 H         4.703430         2.594253         0.798636
 H         4.279309         2.540523        -0.981623
 H         2.421932         0.533927         1.981312
