19
Iteration:  4882
 C         0.040468         0.031849        -0.173290
 C         1.395068        -0.015337         0.251583
 C         2.305994        -1.231319         0.436464
 C         3.286568        -0.063513         0.035204
 C         4.602397         0.492728        -0.299629
 C         4.246423         2.051808        -0.065802
 O         3.022569         2.130611         0.591003
 C         2.597706         0.850912         1.024511
 O         2.242603         0.271464        -1.042687
 H        -0.715265        -0.360979         0.531292
 H        -0.240684         1.019645        -0.530777
 H        -0.041743        -0.696613        -1.004901
 H         2.512865        -1.765773         1.376186
 H         2.059526        -1.908708        -0.410590
 H         5.567072         0.204526         0.186611
 H         4.681483         0.118011        -1.322887
 H         5.029208         2.351995         0.724097
 H         4.113680         2.696797        -0.864659
 H         2.618227         0.559965         2.074523
