19
Iteration:  3272charge 0 multiplicity 1
 C        -0.037097         0.256222         0.044611
 C         1.492484        -0.017486         0.025618
 C         2.309161        -1.343912         0.315835
 C         3.329765        -0.137024        -0.046122
 C         4.573579         0.578533        -0.330665
 C         4.181887         2.091061         0.018977
 O         2.899892         2.109239         0.671225
 C         2.613313         0.786350         1.027507
 O         2.367516         0.143482        -1.101253
 H        -0.449282         0.022954         1.096004
 H        -0.138000         1.322874         0.015257
 H        -0.644759        -0.161634        -0.746474
 H         2.392255        -1.595650         1.458941
 H         2.405017        -2.151234        -0.384493
 H         5.410248         0.138878         0.221343
 H         4.940860         0.489048        -1.299481
 H         5.007731         2.405927         0.687830
 H         4.139160         2.540546        -0.913031
 H         2.623043         0.426643         2.105731
