19
Iteration:  4376charge 0 multiplicity 1
 C        -0.069285         0.021570        -0.069560
 C         1.420453        -0.028471         0.043795
 C         2.385568        -1.251710         0.460549
 C         3.274815        -0.086656        -0.007524
 C         4.586614         0.547056        -0.300428
 C         4.240313         2.003892        -0.058230
 O         3.104288         2.110977         0.801606
 C         2.453329         0.862976         0.868957
 O         2.288034         0.306869        -1.087242
 H        -0.513886        -0.051842         0.885169
 H        -0.176521         0.957342        -0.634007
 H        -0.259933        -0.825940        -0.709764
 H         2.554074        -1.430549         1.543154
 H         2.336313        -2.241410        -0.105548
 H         5.387478         0.239527         0.481775
 H         4.912252         0.196887        -1.372290
 H         5.097965         2.584735         0.356385
 H         4.014331         2.514839        -1.006218
 H         2.392450         0.602536         1.919513
