19
Iteration:  1716charge 0 multiplicity 1
 C        -0.012996         0.243141         0.020046
 C         1.458995        -0.060305         0.137891
 C         2.443510        -1.376713         0.210829
 C         3.270043        -0.058661         0.029727
 C         4.593674         0.498131        -0.307474
 C         4.225579         2.121295        -0.053795
 O         2.998816         2.052633         0.760420
 C         2.559189         0.770269         1.028608
 O         2.185332         0.277766        -1.095167
 H        -0.531892         0.354119         0.944507
 H         0.043704         1.170463        -0.486677
 H        -0.370947        -0.439083        -0.756293
 H         2.705153        -1.960403         1.082326
 H         2.581494        -1.951811        -0.685690
 H         5.426127         0.113037         0.293138
 H         4.849183         0.291399        -1.337980
 H         4.902720         2.662417         0.511525
 H         3.958967         2.380579        -1.059534
 H         2.550845         0.497208         2.103893
