19
Iteration:  4626
 C        -0.102997         0.166314         0.152567
 C         1.374841        -0.058720        -0.022448
 C         2.359618        -1.294997         0.341499
 C         3.293487        -0.083632         0.010515
 C         4.645726         0.565501        -0.197312
 C         4.319685         2.080444         0.145772
 O         2.960721         2.217042         0.551642
 C         2.487699         0.826163         0.861184
 O         2.357658         0.088609        -1.184998
 H        -0.162264        -0.035741         1.235961
 H        -0.416094         1.231446        -0.174660
 H        -0.609132        -0.617302        -0.471752
 H         2.356237        -1.802919         1.353880
 H         2.443550        -2.111800        -0.353258
 H         5.446243         0.154134         0.356719
 H         4.952961         0.246319        -1.195988
 H         4.951462         2.647092         0.833771
 H         4.343095         2.603665        -0.861559
 H         2.584405         0.434253         1.933634
