19
Iteration:  3325charge 0 multiplicity 1
 C        -0.093640         0.085162        -0.063702
 C         1.452738         0.022151         0.087967
 C         2.401480        -1.358193         0.306265
 C         3.243790        -0.053622         0.007949
 C         4.622424         0.503327        -0.188708
 C         4.229069         1.997671        -0.250590
 O         3.008028         2.089278         0.787735
 C         2.565632         0.847730         1.008007
 O         2.300019         0.369131        -1.058235
 H        -0.479122        -0.066508         1.043199
 H        -0.515349         1.055234        -0.261503
 H        -0.560829        -0.689542        -0.670887
 H         2.463091        -2.077531         1.242998
 H         2.393413        -2.068632        -0.484565
 H         5.248865         0.235582         0.713470
 H         5.161280         0.127964        -1.033451
 H         5.165272         2.675256         0.133434
 H         4.054367         2.489172        -1.197528
 H         2.605914         0.512387         1.994639
