19
Iteration:    46
 C        -0.037686         0.276449         0.212053
 C         1.478152         0.063230         0.037127
 C         2.450666        -1.264954         0.174854
 C         3.292745        -0.116441        -0.049541
 C         4.755887         0.491484        -0.076853
 C         4.138558         1.987455        -0.021570
 O         2.915987         2.056913         0.685959
 C         2.471539         0.759655         0.951474
 O         2.278619         0.232294        -1.266328
 H        -0.196397         0.237249         1.305573
 H        -0.470596         1.190485        -0.170812
 H        -0.573405        -0.608912        -0.230821
 H         2.564450        -1.756631         1.170360
 H         2.340842        -1.961319        -0.626204
 H         5.404899         0.173410         0.787447
 H         5.281192         0.402202        -0.965991
 H         4.886481         2.675450         0.348841
 H         4.013263         2.198291        -1.035889
 H         2.557211         0.509944         1.998566
