19
Iteration:  2383charge 0 multiplicity 1
 C        -0.051116         0.156300         0.043459
 C         1.464863        -0.031038         0.240162
 C         2.401432        -1.330530         0.292196
 C         3.235956        -0.109307        -0.132557
 C         4.645327         0.494835        -0.304815
 C         4.240521         2.007214        -0.105049
 O         2.931573         2.089653         0.672010
 C         2.579752         0.790560         1.028610
 O         2.324075         0.372831        -1.085619
 H        -0.656547        -0.311031         0.879749
 H        -0.352072         1.239698         0.004280
 H        -0.266236        -0.320761        -0.881910
 H         2.462657        -1.737443         1.382863
 H         2.243057        -2.135802        -0.482586
 H         5.066666         0.217902         0.674537
 H         5.251287         0.243811        -1.192628
 H         4.831051         2.737294         0.462323
 H         3.999357         2.419764        -1.092782
 H         2.654507         0.563973         2.152760
