19
Iteration:  3581
 C         0.034752         0.229146        -0.008878
 C         1.484528        -0.017526         0.177065
 C         2.375024        -1.285370         0.347715
 C         3.358097        -0.151095        -0.021624
 C         4.673963         0.559146        -0.176325
 C         4.186229         1.957995        -0.177472
 O         2.930159         2.061743         0.650273
 C         2.522865         0.714936         0.957233
 O         2.204568         0.329314        -1.043741
 H        -0.728472        -0.076578         0.715334
 H        -0.041794         1.326392        -0.089429
 H        -0.332865        -0.117292        -0.979589
 H         2.499260        -1.781346         1.348152
 H         2.263855        -1.986166        -0.468925
 H         5.332792         0.376422         0.571505
 H         5.265579         0.350572        -1.087895
 H         4.917512         2.655331         0.330143
 H         3.945705         2.416735        -1.192099
 H         2.616875         0.539215         2.014197
