19
Iteration:  4933charge 0 multiplicity 1
 C         0.016562         0.076051         0.017849
 C         1.456239         0.035621         0.002770
 C         2.421260        -1.173077         0.396949
 C         3.298817        -0.086908        -0.036950
 C         4.603919         0.504415        -0.132928
 C         4.170884         1.969491        -0.125218
 O         3.043960         2.053663         0.744040
 C         2.484996         0.868178         0.939086
 O         2.282459         0.275296        -1.170551
 H        -0.398551        -0.032588         1.074936
 H        -0.307745         1.045028        -0.409457
 H        -0.600381        -0.712827        -0.578027
 H         2.416002        -1.534018         1.438351
 H         2.428974        -2.088576        -0.292064
 H         5.042182         0.124538         0.775089
 H         5.267531         0.211331        -0.914655
 H         4.870480         2.753711         0.204124
 H         3.762701         2.288107        -1.155003
 H         2.392493         0.411489         1.973440
