19
Iteration:  2980
 C         0.002158         0.055098         0.148977
 C         1.423966         0.017998         0.109873
 C         2.250259        -1.274145         0.315832
 C         3.259978        -0.053268        -0.018372
 C         4.682164         0.530932        -0.340123
 C         4.320351         1.994386         0.081312
 O         2.999801         2.133187         0.701049
 C         2.507952         0.791778         0.880479
 O         2.314688         0.273950        -1.232890
 H        -0.371679        -0.238308         1.181670
 H        -0.390780         0.982957        -0.200809
 H        -0.386213        -0.727255        -0.469511
 H         2.282717        -1.616471         1.331271
 H         1.991360        -2.050045        -0.394371
 H         5.463331         0.271745         0.255547
 H         4.843026         0.454132        -1.359132
 H         4.955248         2.458321         0.853498
 H         4.364349         2.697552        -0.813421
 H         2.381400         0.553523         2.016653
