19
Iteration:  1346charge 0 multiplicity 1
 C        -0.081375         0.146156        -0.020865
 C         1.472989         0.051368         0.116341
 C         2.396719        -1.307834         0.282710
 C         3.288319        -0.162504        -0.130687
 C         4.649590         0.533230        -0.204229
 C         4.244149         2.036208        -0.039902
 O         3.011273         2.098223         0.816997
 C         2.589479         0.705228         0.934102
 O         2.180802         0.294462        -1.135853
 H        -0.435783         0.265098         1.044703
 H        -0.319669         1.183992        -0.419303
 H        -0.589228        -0.633469        -0.635632
 H         2.683469        -1.508736         1.401254
 H         2.295138        -2.152637        -0.392527
 H         5.170125         0.346459         0.705003
 H         5.304241         0.594106        -1.139783
 H         5.047083         2.692449         0.298194
 H         3.938221         2.484708        -1.057915
 H         2.635277         0.469599         2.082545
