19
Iteration:  3279
 C         0.049259         0.293458         0.043895
 C         1.527577         0.000860         0.061760
 C         2.337204        -1.322908         0.373577
 C         3.274453        -0.107670        -0.086248
 C         4.571584         0.552092        -0.321140
 C         4.226665         2.029881         0.014006
 O         2.880962         2.154202         0.718105
 C         2.558825         0.711671         0.988477
 O         2.315575         0.127001        -1.136714
 H        -0.389896        -0.107193         0.962780
 H        -0.293113         1.364073        -0.057057
 H        -0.435521        -0.306006        -0.759143
 H         2.455590        -1.814029         1.349219
 H         2.239882        -2.158075        -0.352926
 H         5.353904         0.448464         0.468498
 H         5.044286         0.481439        -1.354719
 H         5.000627         2.722226         0.557392
 H         4.146819         2.648504        -0.957070
 H         2.705889         0.378413         1.982183
