19
Iteration:  3767
 C        -0.094793         0.193502         0.094298
 C         1.409042         0.006274         0.190356
 C         2.482271        -1.336845         0.332587
 C         3.245966        -0.081701        -0.073871
 C         4.609014         0.572331        -0.228812
 C         4.359897         2.013690         0.121674
 O         2.899205         2.046060         0.478082
 C         2.506462         0.694815         0.905451
 O         2.267089         0.318561        -1.120787
 H        -0.612199        -0.180420         1.016260
 H        -0.096047         1.231652        -0.044079
 H        -0.378877        -0.193358        -0.823614
 H         2.591619        -1.735044         1.301981
 H         2.444394        -2.071694        -0.383565
 H         5.488166         0.150636         0.315485
 H         5.024758         0.577175        -1.352389
 H         4.912298         2.433071         0.956949
 H         4.604392         2.654403        -0.791592
 H         2.660177         0.603075         2.015032
