19
Iteration:  3432charge 0 multiplicity 1
 C         0.057856         0.297269         0.074391
 C         1.487352        -0.013239         0.056088
 C         2.314344        -1.359430         0.414075
 C         3.299789        -0.103881        -0.019250
 C         4.570632         0.624146        -0.306702
 C         4.246693         2.016168         0.046724
 O         2.874849         2.060189         0.596183
 C         2.497809         0.739132         0.915806
 O         2.384379         0.176196        -1.126656
 H        -0.442439        -0.074367         1.032275
 H        -0.080702         1.368193         0.015732
 H        -0.509655        -0.110844        -0.754687
 H         2.506424        -1.728529         1.424855
 H         2.199038        -2.048591        -0.351503
 H         5.450072         0.228290         0.396488
 H         4.909528         0.613404        -1.364939
 H         4.920870         2.516729         0.762503
 H         4.092436         2.617758        -0.859329
 H         2.634907         0.477407         2.040726
