19
Iteration:  1889
 C        -0.058382         0.235711         0.061484
 C         1.502403        -0.015687         0.106459
 C         2.490221        -1.315536         0.371498
 C         3.282819        -0.148876        -0.123543
 C         4.569871         0.609572        -0.400375
 C         4.257366         1.995172         0.175546
 O         2.953837         2.080156         0.722487
 C         2.564257         0.799712         0.965259
 O         2.189486         0.234519        -1.232432
 H        -0.384866         0.201706         1.084133
 H        -0.260801         1.205004        -0.359385
 H        -0.517708        -0.646816        -0.516975
 H         2.645655        -1.672555         1.415994
 H         2.258515        -2.157687        -0.328345
 H         5.277317         0.130419         0.310319
 H         4.841306         0.646950        -1.432447
 H         5.017350         2.343742         0.817439
 H         4.306879         2.648235        -0.621312
 H         2.738912         0.395519         1.942396
