19
Iteration:   898charge 0 multiplicity 1
 C        -0.050093         0.298252         0.035423
 C         1.449158        -0.033325         0.081980
 C         2.364102        -1.313902         0.252285
 C         3.319047        -0.116211        -0.085327
 C         4.648613         0.570553        -0.115220
 C         4.144070         2.058533        -0.067856
 O         3.015618         2.059449         0.749567
 C         2.631999         0.737070         0.982084
 O         2.238210         0.194099        -1.196308
 H        -0.567314        -0.270016         0.790563
 H        -0.109450         1.380556         0.153598
 H        -0.393917         0.033164        -0.976952
 H         2.386757        -1.685079         1.309439
 H         2.147873        -2.211411        -0.426944
 H         5.107234         0.279514         0.847696
 H         5.361141         0.429498        -0.929074
 H         4.883875         2.751330         0.440574
 H         3.832197         2.488802        -1.074576
 H         2.731440         0.381069         2.043642
