19
Iteration:  2494
 C        -0.087864        -0.003364         0.063692
 C         1.429917        -0.035403         0.146899
 C         2.326988        -1.297589         0.307551
 C         3.188718        -0.075107        -0.032875
 C         4.648581         0.553500        -0.356214
 C         4.335874         1.996331         0.025303
 O         3.016428         2.174106         0.614048
 C         2.572007         0.846162         1.052213
 O         2.302812         0.339414        -1.109201
 H        -0.685367        -0.150517         0.991859
 H        -0.407256         0.938207        -0.371248
 H        -0.296765        -0.747887        -0.702731
 H         2.528389        -1.738430         1.317709
 H         2.154344        -2.060319        -0.581155
 H         5.512815         0.017276         0.052706
 H         4.722035         0.310536        -1.410367
 H         4.940283         2.315200         0.809918
 H         4.472101         2.616280        -0.820866
 H         2.505288         0.529566         2.192522
