19
Iteration:  1677charge 0 multiplicity 1
 C         0.011603         0.039122         0.120096
 C         1.436546         0.099715         0.123343
 C         2.269202        -1.228332         0.317798
 C         3.246082        -0.155112        -0.072695
 C         4.657090         0.510190        -0.248999
 C         4.250788         2.065801        -0.025650
 O         3.031073         2.023741         0.757134
 C         2.556145         0.758039         0.904733
 O         2.326409         0.379436        -1.221851
 H        -0.404248        -0.391290         1.079701
 H        -0.669166         0.911118        -0.097261
 H        -0.287733        -0.756452        -0.601691
 H         2.438633        -1.642481         1.342294
 H         1.959974        -2.001231        -0.498521
 H         5.300512         0.085747         0.539944
 H         5.025135         0.296075        -1.252863
 H         4.966300         2.848241         0.451258
 H         3.851337         2.644696        -0.913669
 H         2.500402         0.537082         1.993975
