19
Iteration:  2769charge 0 multiplicity 1
 C         0.011879         0.261533         0.058440
 C         1.508513        -0.029314         0.145225
 C         2.291736        -1.329991         0.371855
 C         3.312280        -0.050242        -0.129419
 C         4.650648         0.626155        -0.265617
 C         4.221684         2.097124         0.056379
 O         2.892826         2.023099         0.704969
 C         2.575692         0.724536         0.889914
 O         2.275359         0.165010        -1.179705
 H        -0.378420        -0.201897         0.941078
 H        -0.167867         1.358266        -0.001738
 H        -0.527898        -0.282225        -0.797421
 H         2.478246        -1.685642         1.410362
 H         2.249164        -2.143128        -0.314169
 H         5.410455         0.246288         0.435316
 H         4.941049         0.483621        -1.350432
 H         5.013668         2.620544         0.758117
 H         4.269101         2.670563        -0.843117
 H         2.670885         0.372088         1.867094
