19
Iteration:    68charge 0 multiplicity 1
 C         0.004979         0.222623         0.058449
 C         1.483553        -0.059585         0.047234
 C         2.503192        -1.378910         0.288743
 C         3.234838        -0.132632        -0.023708
 C         4.557068         0.505460        -0.227374
 C         4.252785         2.027156        -0.084874
 O         2.948991         2.094709         0.710816
 C         2.481643         0.768072         0.909371
 O         2.248060         0.386260        -1.052062
 H        -0.377267         0.263389         1.088177
 H        -0.049959         1.212702        -0.372249
 H        -0.606050        -0.461975        -0.576477
 H         2.619746        -1.889968         1.260930
 H         2.545600        -2.045897        -0.553128
 H         5.091305         0.162485         0.675402
 H         5.077753         0.192284        -1.071382
 H         5.047697         2.492801         0.493067
 H         4.203285         2.491598        -1.017269
 H         2.596001         0.514621         1.952972
