19
Iteration:  2309charge 0 multiplicity 1
 C        -0.028673         0.088588         0.053936
 C         1.492996         0.072828         0.028090
 C         2.311002        -1.296856         0.397105
 C         3.293023        -0.103322        -0.042261
 C         4.693603         0.503298        -0.323119
 C         4.156267         2.074083        -0.147885
 O         3.051240         2.074115         0.831341
 C         2.526965         0.762321         1.023541
 O         2.291378         0.289547        -1.161312
 H        -0.403118        -0.059934         1.076813
 H        -0.414377         1.094248        -0.147086
 H        -0.372733        -0.484450        -0.775320
 H         2.286140        -1.577323         1.381876
 H         2.164429        -2.051711        -0.413264
 H         5.382483         0.049177         0.427052
 H         5.040190         0.337503        -1.315107
 H         4.951823         2.715246         0.296358
 H         3.669304         2.624965        -1.107646
 H         2.401702         0.373791         2.020421
