19
Iteration:  3984
 C         0.082336         0.231987         0.004218
 C         1.531622        -0.020594         0.125367
 C         2.335280        -1.303711         0.279018
 C         3.261143        -0.160678         0.029177
 C         4.594118         0.507469        -0.306031
 C         4.110992         2.097291         0.036536
 O         2.891370         2.115511         0.663036
 C         2.533168         0.773665         0.997252
 O         2.369540         0.201034        -1.091063
 H        -0.496968        -0.014311         0.939465
 H        -0.104105         1.280428        -0.262873
 H        -0.292009        -0.407614        -0.786899
 H         2.253767        -1.771701         1.282276
 H         2.473791        -1.794039        -0.693357
 H         5.502413         0.206990         0.109411
 H         4.762434         0.378807        -1.433411
 H         4.856427         2.595136         0.699428
 H         4.322336         2.493340        -0.969832
 H         2.683317         0.510577         2.017580
