19
Iteration:   459
 C         0.010556        -0.036470         0.095135
 C         1.423810         0.057398        -0.046462
 C         2.300731        -1.200013         0.179187
 C         3.287915        -0.038441        -0.055762
 C         4.641307         0.420868        -0.096642
 C         4.317925         2.014214        -0.020921
 O         3.102267         2.073525         0.829386
 C         2.435747         0.787359         0.863510
 O         2.227773         0.407934        -1.173108
 H         0.126391        -0.237263         1.194483
 H        -0.530025         0.914220        -0.101399
 H        -0.558830        -0.824324        -0.464655
 H         2.360943        -1.542704         1.231412
 H         2.393985        -1.944558        -0.635760
 H         5.307554         0.200720         0.839554
 H         4.975274         0.068235        -1.059510
 H         4.870563         2.695647         0.581773
 H         4.032107         2.395470        -1.024911
 H         2.251542         0.570485         1.951727
