19
Iteration:  2935charge 0 multiplicity 1
 C         0.003307         0.263507         0.121816
 C         1.523266        -0.032385         0.223334
 C         2.427505        -1.321613         0.304689
 C         3.313320        -0.084417        -0.147683
 C         4.667618         0.505010        -0.267585
 C         4.322609         2.005371         0.090388
 O         2.841567         2.056207         0.594819
 C         2.505623         0.778664         0.941706
 O         2.162530         0.245953        -1.167250
 H        -0.784024        -0.231273         0.792085
 H        -0.034312         1.335438        -0.096333
 H        -0.223100        -0.158735        -0.819009
 H         2.531911        -1.783177         1.241007
 H         2.363779        -2.024529        -0.569684
 H         5.358396         0.166836         0.449773
 H         5.087903         0.639112        -1.241436
 H         4.944157         2.499154         0.924213
 H         4.287128         2.730778        -0.763593
 H         2.757390         0.666881         2.071888
