19
Iteration:  4333charge 0 multiplicity 1
 C        -0.008604         0.115063         0.121661
 C         1.473188        -0.023760         0.163187
 C         2.359168        -1.339037         0.273742
 C         3.311009        -0.125205         0.000900
 C         4.639173         0.548875        -0.159705
 C         4.276399         2.034271         0.061956
 O         2.880938         2.110283         0.377181
 C         2.524978         0.783604         0.906894
 O         2.305031         0.340289        -1.051611
 H        -0.509315        -0.230758         1.045638
 H        -0.349050         1.198231        -0.017869
 H        -0.550792        -0.512839        -0.632749
 H         2.272974        -1.939822         1.183688
 H         2.164406        -1.817788        -0.730072
 H         5.344574         0.077921         0.653003
 H         5.191002         0.417294        -1.209628
 H         4.936434         2.385232         0.872095
 H         4.604261         2.658842        -0.762756
 H         2.537283         0.682205         1.991513
