19
Iteration:   963charge 0 multiplicity 1
 C        -0.019936        -0.023437        -0.069616
 C         1.445865         0.042977         0.184527
 C         2.260138        -1.298926         0.295166
 C         3.175675        -0.104391        -0.112220
 C         4.655712         0.567713        -0.244098
 C         4.318666         1.994220        -0.015871
 O         3.052561         2.091821         0.661608
 C         2.560664         0.807927         0.977586
 O         2.276285         0.391560        -1.026499
 H        -0.492647        -0.023052         0.887942
 H        -0.372880         0.861230        -0.582436
 H        -0.429077        -0.880856        -0.598791
 H         2.417560        -1.717808         1.207660
 H         1.715678        -1.844971        -0.524087
 H         5.302616         0.200557         0.559021
 H         5.232283         0.207711        -1.100221
 H         5.014502         2.424381         0.752182
 H         4.388462         2.546853        -1.019172
 H         2.724663         0.715754         2.105662
