19
Iteration:  3912
 C         0.025248         0.058399        -0.017807
 C         1.534901         0.064612         0.137563
 C         2.315884        -1.335671         0.268930
 C         3.239719        -0.084572         0.005216
 C         4.618966         0.455922        -0.204496
 C         4.176070         1.993401        -0.156845
 O         2.978966         2.111689         0.743622
 C         2.510034         0.843226         0.980766
 O         2.357971         0.378676        -1.064026
 H        -0.378651        -0.464708         0.802849
 H        -0.453967         1.070524        -0.039504
 H        -0.194759        -0.528181        -0.932620
 H         2.370459        -1.761923         1.199979
 H         2.299335        -1.956210        -0.682171
 H         5.301124         0.115862         0.631714
 H         5.150433         0.164046        -1.109617
 H         4.964977         2.656395         0.214425
 H         3.774440         2.379033        -1.116002
 H         2.252947         0.594083         2.038158
