19
Iteration:   218
 C         0.011491         0.295319         0.060252
 C         1.478558        -0.016472         0.073776
 C         2.426854        -1.382273         0.249217
 C         3.269122        -0.039286         0.030529
 C         4.625284         0.545118        -0.279551
 C         4.210056         2.038929         0.040151
 O         2.888754         2.043693         0.724840
 C         2.452445         0.771565         0.950818
 O         2.369179         0.229580        -1.162687
 H        -0.351652         0.265444         1.075578
 H         0.069554         1.304008        -0.286633
 H        -0.681175        -0.323690        -0.500180
 H         2.556077        -1.955278         1.165184
 H         2.257936        -2.093066        -0.538691
 H         5.375577         0.188935         0.389350
 H         4.707697         0.260781        -1.367174
 H         5.018349         2.510948         0.590478
 H         4.179509         2.561780        -0.954405
 H         2.577096         0.402308         1.964904
