19
Iteration:  3160charge 0 multiplicity 1
 C        -0.021887         0.041414         0.043855
 C         1.470500         0.047424         0.099664
 C         2.306429        -1.275217         0.306477
 C         3.254932        -0.092065        -0.098478
 C         4.622818         0.513992        -0.289602
 C         4.311907         1.960006        -0.095749
 O         2.972428         2.120133         0.759708
 C         2.422557         0.860093         1.004885
 O         2.384238         0.311706        -1.110080
 H        -0.315575        -0.117773         1.093706
 H        -0.439656         1.080782        -0.091526
 H        -0.449756        -0.780713        -0.583105
 H         2.545557        -1.726315         1.327422
 H         2.129320        -2.092148        -0.495854
 H         5.299584         0.044458         0.433900
 H         5.015863         0.362175        -1.335235
 H         5.157783         2.564925         0.378200
 H         3.941597         2.530634        -0.924686
 H         2.526750         0.613008         2.183809
