19
Iteration:  4958charge 0 multiplicity 1
 C        -0.032027         0.190420         0.056307
 C         1.423005        -0.031794         0.175215
 C         2.329952        -1.353335         0.281741
 C         3.355001        -0.197888        -0.053922
 C         4.675955         0.585760        -0.024443
 C         4.192892         2.089214        -0.167588
 O         2.978567         2.178673         0.718574
 C         2.555402         0.819785         0.865814
 O         2.298755         0.162458        -1.195170
 H        -0.486093         0.113769         1.110143
 H        -0.175384         1.272677        -0.272265
 H        -0.736039        -0.466944        -0.567425
 H         2.347013        -2.023693         1.190702
 H         2.167002        -1.991365        -0.587655
 H         5.108297         0.312022         0.948257
 H         5.443814         0.430937        -0.772380
 H         4.815362         2.928439         0.241906
 H         3.945087         2.330606        -1.125910
 H         2.657889         0.458130         1.893601
