19
Iteration:  3050charge 0 multiplicity 1
 C        -0.082648         0.170353         0.017703
 C         1.489419         0.035262         0.113543
 C         2.370731        -1.317222         0.309636
 C         3.315357        -0.155862        -0.021836
 C         4.604472         0.546573        -0.213813
 C         4.200869         2.022841        -0.161532
 O         3.015768         2.123330         0.812910
 C         2.592397         0.785418         1.001585
 O         2.284290         0.302506        -1.153550
 H        -0.560954        -0.202186         0.891911
 H        -0.568051         1.094807        -0.424070
 H        -0.390032        -0.694017        -0.717700
 H         2.568368        -1.923262         1.282071
 H         2.013732        -2.011298        -0.507787
 H         5.324378         0.199136         0.562490
 H         4.855808         0.280410        -1.291728
 H         5.084910         2.567996         0.250597
 H         3.856854         2.433694        -1.129843
 H         2.655235         0.451114         2.031652
