19
Iteration:  4100
 C         0.058497         0.165457        -0.110218
 C         1.462900        -0.006541         0.150855
 C         2.379849        -1.319301         0.329119
 C         3.322456        -0.123207        -0.004065
 C         4.532430         0.504216        -0.347767
 C         4.143490         2.016820        -0.062208
 O         2.945645         2.113603         0.715903
 C         2.580538         0.766420         0.972346
 O         2.290087         0.326692        -0.971366
 H        -0.543148        -0.267573         0.746514
 H        -0.174353         1.207870        -0.276267
 H        -0.155285        -0.397078        -1.021058
 H         2.564903        -1.705273         1.384335
 H         2.203389        -1.900479        -0.536941
 H         5.486690         0.150990         0.342332
 H         4.999160         0.243792        -1.283161
 H         4.931008         2.572607         0.598657
 H         4.076374         2.633715        -0.994733
 H         2.596957         0.423297         2.032697
