19
Iteration:   368charge 0 multiplicity 1
 C        -0.007462         0.337973         0.006051
 C         1.441502        -0.011144         0.069290
 C         2.430330        -1.345841         0.299663
 C         3.333874        -0.093742        -0.025650
 C         4.663624         0.521139        -0.339792
 C         4.202128         2.059895         0.018170
 O         2.864930         2.045836         0.849360
 C         2.521921         0.721471         0.998780
 O         2.339600         0.237674        -1.195720
 H        -0.439816        -0.088185         0.916696
 H        -0.234429         1.403246         0.121250
 H        -0.525982         0.052687        -0.925712
 H         2.507193        -1.800894         1.285020
 H         2.367696        -2.053844        -0.513432
 H         5.385406         0.090016         0.291542
 H         5.083394         0.288381        -1.358519
 H         4.907794         2.685558         0.451637
 H         3.895494         2.341668        -0.978957
 H         2.274037         0.316886         1.972549
