19
Iteration:  1459charge 0 multiplicity 1
 C        -0.116875         0.051724        -0.039865
 C         1.405731         0.021314         0.129123
 C         2.411671        -1.303615         0.278526
 C         3.277222        -0.048677        -0.094923
 C         4.658336         0.561632        -0.261835
 C         4.410094         2.054552         0.019541
 O         3.019779         2.079998         0.723103
 C         2.572011         0.815690         0.976804
 O         2.137493         0.296688        -1.095218
 H        -0.453688        -0.476801         0.849626
 H        -0.571539         1.011845         0.064770
 H        -0.495539        -0.417733        -0.961707
 H         2.701534        -1.557592         1.305278
 H         2.120633        -2.223520        -0.388414
 H         5.309256         0.050159         0.553124
 H         5.052797         0.361370        -1.228259
 H         5.070015         2.600926         0.600950
 H         4.304890         2.415053        -0.942386
 H         2.547983         0.435259         2.045993
