19
Iteration:  3624charge 0 multiplicity 1
 C         0.033242         0.335896         0.103481
 C         1.459812        -0.034485        -0.017694
 C         2.310972        -1.294431         0.347934
 C         3.337850        -0.135322         0.062467
 C         4.659530         0.654150        -0.226797
 C         4.031480         1.987175        -0.168638
 O         3.019654         2.020148         0.811535
 C         2.503715         0.763044         0.856699
 O         2.401746         0.144615        -1.137268
 H        -0.318475         0.016784         1.088327
 H        -0.083213         1.422888         0.008399
 H        -0.631369        -0.080124        -0.662714
 H         2.326360        -1.609877         1.372541
 H         2.128412        -2.095500        -0.298722
 H         5.402180         0.616767         0.574587
 H         5.239891         0.408271        -1.178427
 H         4.837461         2.706907         0.147121
 H         3.566456         2.259960        -1.174658
 H         2.281484         0.446273         1.881137
