19
Iteration:  4874charge 0 multiplicity 1
 C         0.006005         0.047933        -0.146336
 C         1.482144        -0.014341         0.228812
 C         2.348599        -1.287962         0.462908
 C         3.262031        -0.080925         0.013130
 C         4.602995         0.503380        -0.343438
 C         4.326306         1.995915        -0.047094
 O         2.967257         2.140153         0.610370
 C         2.506957         0.827556         0.979617
 O         2.224692         0.306837        -1.036734
 H        -0.755350        -0.265627         0.493797
 H        -0.119494         1.085189        -0.445504
 H         0.053322        -0.506029        -1.020762
 H         2.486337        -1.498286         1.532580
 H         2.281294        -2.102633        -0.203595
 H         5.345016         0.037260         0.381226
 H         4.900869         0.371838        -1.423721
 H         4.946682         2.528821         0.695477
 H         4.153039         2.672959        -0.948088
 H         2.735041         0.678757         2.027712
