19
Iteration:  1950charge 0 multiplicity 1
 C        -0.038915         0.064387         0.186945
 C         1.451052         0.007333         0.100373
 C         2.440763        -1.263109         0.275410
 C         3.279230        -0.043626        -0.029967
 C         4.609086         0.477679        -0.346029
 C         4.372750         1.955167         0.091007
 O         2.849041         2.078138         0.607498
 C         2.472783         0.777843         0.905126
 O         2.324360         0.403945        -1.148966
 H        -0.322022        -0.077620         1.267744
 H        -0.403975         1.081213        -0.105862
 H        -0.583449        -0.581521        -0.420369
 H         2.426043        -1.830557         1.217520
 H         2.286789        -1.816043        -0.597557
 H         5.375961        -0.026708         0.216466
 H         4.902455         0.211594        -1.363833
 H         5.117303         2.289513         0.905704
 H         4.280305         2.739575        -0.682078
 H         2.625559         0.644996         2.058240
