19
Iteration:  4039
 C        -0.017932        -0.043184         0.056861
 C         1.501991         0.062473         0.097405
 C         2.341327        -1.214430         0.301525
 C         3.214113        -0.093260        -0.161523
 C         4.618087         0.508299        -0.106894
 C         4.342634         1.998772        -0.052806
 O         3.029719         2.148359         0.817324
 C         2.549738         0.842622         0.903345
 O         2.189554         0.311787        -1.219315
 H        -0.511545        -0.072984         1.057168
 H        -0.455079         0.843674        -0.471276
 H        -0.245440        -0.961160        -0.486649
 H         2.540775        -1.776156         1.205336
 H         2.147804        -1.966509        -0.533341
 H         4.958680         0.229618         0.814337
 H         5.290984         0.219480        -1.005323
 H         5.051700         2.605284         0.566429
 H         4.062141         2.312132        -1.102881
 H         2.575209         0.529060         1.965472
