19
Iteration:  3386
 C        -0.088949         0.120448        -0.051199
 C         1.461072        -0.046076         0.157150
 C         2.378621        -1.302759         0.365284
 C         3.267920        -0.037051        -0.114979
 C         4.588350         0.564076        -0.149945
 C         4.231021         2.011951        -0.100197
 O         3.105065         2.088421         0.741869
 C         2.520961         0.806136         0.915317
 O         2.253987         0.256954        -1.105674
 H        -0.557949        -0.185824         0.844276
 H        -0.303714         1.211127        -0.246275
 H        -0.473787        -0.491348        -0.890462
 H         2.445983        -1.504059         1.396176
 H         2.352596        -2.120706        -0.406017
 H         5.302095         0.248963         0.655497
 H         5.209778         0.457438        -1.131500
 H         4.975976         2.515363         0.415336
 H         3.941401         2.432200        -1.098160
 H         2.579610         0.560529         2.060658
