19
Iteration:  2277
 C        -0.035819         0.231102         0.102532
 C         1.460520        -0.026912         0.175874
 C         2.478444        -1.321172         0.288477
 C         3.211898        -0.043810        -0.127683
 C         4.618548         0.498641        -0.211611
 C         4.237528         2.055710        -0.006750
 O         2.967882         2.049058         0.586524
 C         2.584239         0.742820         0.998066
 O         2.220572         0.278269        -1.082822
 H        -0.692618         0.278333         1.014063
 H        -0.096012         1.121285        -0.532516
 H        -0.470249        -0.548983        -0.587070
 H         2.601666        -1.914123         1.137964
 H         2.338481        -1.896058        -0.691094
 H         5.373790         0.053391         0.490319
 H         5.120878         0.359260        -1.134475
 H         4.867275         2.743100         0.577815
 H         4.066836         2.646086        -1.021910
 H         2.730055         0.333686         2.096458
