19
Iteration:   378charge 0 multiplicity 1
 C        -0.019311         0.372665        -0.009411
 C         1.522803        -0.004681         0.037797
 C         2.438165        -1.357507         0.288035
 C         3.282258        -0.116653        -0.058761
 C         4.660905         0.438471        -0.401446
 C         4.181883         2.103793         0.016507
 O         2.849927         2.048095         0.867317
 C         2.451973         0.673579         0.997563
 O         2.405947         0.251484        -1.081758
 H        -0.627626         0.023249         0.803797
 H        -0.056417         1.474640        -0.099766
 H        -0.418819        -0.168254        -0.855613
 H         2.520818        -1.664494         1.336698
 H         2.272816        -2.175846        -0.364600
 H         5.507141         0.189656         0.121842
 H         4.732794         0.361738        -1.533559
 H         4.805013         2.828463         0.488737
 H         3.912154         2.579332        -0.917973
 H         2.559134         0.486257         2.050159
