19
Iteration:   708
 C        -0.074724         0.260447        -0.083100
 C         1.489721        -0.026725         0.164943
 C         2.444521        -1.341520         0.296202
 C         3.234275        -0.183170        -0.074360
 C         4.573920         0.574119        -0.345781
 C         4.300217         2.046441         0.125689
 O         2.943229         2.131377         0.738393
 C         2.602275         0.787634         0.984244
 O         2.259806         0.185934        -1.131622
 H        -0.750169        -0.254797         0.576326
 H        -0.141427         1.331353        -0.042074
 H        -0.523373         0.201095        -1.062339
 H         2.623012        -1.824883         1.275325
 H         2.269066        -2.035985        -0.466246
 H         5.306983         0.104944         0.314511
 H         4.936646         0.423532        -1.360644
 H         4.980531         2.349358         0.980856
 H         4.190605         2.815831        -0.698918
 H         2.539850         0.452732         1.996827
