19
Iteration:  1199
 C         0.064242         0.170137         0.092772
 C         1.530355         0.089352         0.096901
 C         2.260823        -1.309379         0.319348
 C         3.326288        -0.199992        -0.150955
 C         4.716682         0.513078        -0.205198
 C         4.213176         2.056765         0.027709
 O         2.912569         2.068142         0.609623
 C         2.511395         0.703078         0.936110
 O         2.245925         0.348282        -1.101976
 H        -0.400199         0.205188         1.102038
 H        -0.349121         1.060720        -0.483028
 H        -0.296965        -0.741531        -0.449032
 H         2.333140        -1.574474         1.381871
 H         1.893698        -2.155165        -0.354232
 H         5.420281         0.098465         0.512723
 H         5.205471         0.411351        -1.137666
 H         5.014302         2.580352         0.713355
 H         4.206774         2.648186        -0.878624
 H         2.482721         0.579171         2.097540
