19
Iteration:  4224charge 0 multiplicity 1
 C         0.007754        -0.022676        -0.129352
 C         1.451288        -0.022745         0.244580
 C         2.397502        -1.270567         0.339994
 C         3.269529        -0.054773        -0.005135
 C         4.639432         0.371933        -0.325192
 C         4.272437         1.958197        -0.057671
 O         2.960165         2.169013         0.668712
 C         2.550038         0.877737         1.016124
 O         2.182278         0.459605        -1.017424
 H        -0.651843         0.097724         0.739003
 H        -0.005521         0.925952        -0.810625
 H        -0.223801        -0.936602        -0.773579
 H         2.659432        -1.753172         1.241388
 H         2.208135        -1.988263        -0.561577
 H         5.451690         0.036443         0.363016
 H         5.066944         0.241576        -1.388940
 H         5.023757         2.292713         0.651919
 H         4.056054         2.443891        -0.961742
 H         2.596884         0.599360         2.123291
