19
Iteration:  3486
 C        -0.027420         0.078959         0.056013
 C         1.443071        -0.016766         0.129487
 C         2.429751        -1.300800         0.298118
 C         3.135062        -0.020540        -0.096713
 C         4.630124         0.447493        -0.228901
 C         4.422670         2.050020         0.068842
 O         2.987479         2.149870         0.615358
 C         2.481237         0.870103         0.960362
 O         2.203143         0.216310        -1.147522
 H        -0.533552         0.077901         1.088008
 H        -0.240427         1.030655        -0.422629
 H        -0.369349        -0.724291        -0.584718
 H         2.628503        -1.651866         1.352006
 H         2.311882        -2.020661        -0.465743
 H         5.398274        -0.126904         0.489155
 H         5.102832         0.366485        -1.227669
 H         5.055679         2.529177         0.769651
 H         4.354043         2.705155        -0.812484
 H         2.584740         0.706178         2.110993
