19
Iteration:  4143
 C         0.013032         0.286739         0.050756
 C         1.487055        -0.013293         0.072860
 C         2.401026        -1.368300         0.329284
 C         3.362420        -0.173676        -0.032691
 C         4.629570         0.551951        -0.183474
 C         4.139019         2.037322        -0.132530
 O         2.900192         2.062802         0.681711
 C         2.518542         0.701390         0.931190
 O         2.313137         0.284432        -1.081462
 H        -0.528782        -0.050759         0.949924
 H        -0.035499         1.344987         0.054560
 H        -0.549669        -0.008776        -0.807013
 H         2.341263        -1.931810         1.329813
 H         2.414854        -2.010276        -0.521803
 H         5.412394         0.434771         0.755180
 H         5.215295         0.414781        -1.091990
 H         4.782633         2.778814         0.303205
 H         3.830733         2.689671        -0.950489
 H         2.617975         0.559942         1.982345
