19
Iteration:  3364
 C        -0.038334        -0.022263        -0.018830
 C         1.454604         0.103856         0.036567
 C         2.241662        -1.283315         0.353667
 C         3.249568        -0.115153         0.017301
 C         4.681224         0.480016        -0.218891
 C         4.243054         1.993124        -0.203350
 O         2.995104         2.105511         0.779888
 C         2.588164         0.822937         1.011256
 O         2.336152         0.411514        -1.083158
 H        -0.326484        -0.264464         0.957210
 H        -0.479496         0.936660        -0.420014
 H        -0.277980        -0.856474        -0.713127
 H         2.242132        -1.674619         1.326793
 H         2.116445        -1.861388        -0.608817
 H         5.456905         0.266110         0.575994
 H         5.246499         0.024998        -1.160548
 H         4.871445         2.697764         0.241365
 H         3.766752         2.266153        -1.183855
 H         2.570734         0.503036         2.144516
