19
Iteration:  4789
 C        -0.002697         0.152875         0.060242
 C         1.486621         0.014338         0.137841
 C         2.405234        -1.219828         0.334811
 C         3.277582        -0.101001        -0.031047
 C         4.685503         0.541402        -0.080095
 C         4.229372         1.957087        -0.081927
 O         2.873168         2.026551         0.531796
 C         2.440967         0.785557         0.932226
 O         2.325278         0.325634        -1.129739
 H        -0.364007         0.131437         1.121983
 H        -0.329323         1.163074        -0.374772
 H        -0.624997        -0.621785        -0.454356
 H         2.789288        -1.562424         1.344844
 H         2.307355        -1.979232        -0.403158
 H         5.316269         0.155732         0.659589
 H         5.238976         0.268620        -0.981651
 H         4.883239         2.501012         0.531940
 H         4.341521         2.257264        -1.136479
 H         2.513734         0.538589         2.021747
