19
Iteration:  2234
 C         0.029041         0.123910         0.169803
 C         1.481417        -0.031340         0.121764
 C         2.288401        -1.281983         0.327589
 C         3.263875        -0.070030        -0.060488
 C         4.558511         0.530606        -0.309885
 C         4.311917         2.067142         0.116211
 O         2.902506         2.084172         0.580290
 C         2.520793         0.785308         0.952076
 O         2.360163         0.258516        -1.236521
 H        -0.035868         0.066188         1.300936
 H        -0.313837         1.138608        -0.090242
 H        -0.601721        -0.619166        -0.403337
 H         2.609877        -1.618457         1.286757
 H         1.987381        -2.029197        -0.513251
 H         5.355591        -0.006512         0.261549
 H         4.842158         0.391702        -1.328039
 H         5.026600         2.383703         0.840041
 H         4.400841         2.759912        -0.758509
 H         2.599354         0.617483         2.122566
