19
Iteration:  2919
 C         0.056838         0.220795         0.008211
 C         1.495239        -0.044671         0.179431
 C         2.340773        -1.349676         0.269319
 C         3.249902        -0.145739        -0.111414
 C         4.637894         0.572998        -0.286041
 C         4.247263         2.073357         0.093776
 O         2.843518         2.117670         0.552036
 C         2.668831         0.734536         0.954845
 O         2.206052         0.290939        -1.010308
 H        -0.386552        -0.136405         0.900087
 H        -0.106289         1.305397         0.098782
 H        -0.354355        -0.180516        -0.980044
 H         2.619959        -1.816308         1.283845
 H         2.062910        -2.095623        -0.451520
 H         5.323298        -0.069750         0.428836
 H         5.121200         0.283668        -1.306098
 H         4.938317         2.421765         0.860200
 H         4.304131         2.632109        -0.831505
 H         2.837297         0.432497         2.063375
