19
Iteration:  1339charge 0 multiplicity 1
 C        -0.100863         0.176251        -0.010141
 C         1.402943         0.032277         0.078904
 C         2.429790        -1.345538         0.308867
 C         3.283587        -0.100757        -0.109466
 C         4.636725         0.553030        -0.243572
 C         4.262176         2.013375        -0.082238
 O         3.025929         2.110570         0.861391
 C         2.539203         0.746959         0.897404
 O         2.248864         0.307192        -1.090109
 H        -0.403969         0.025352         1.025275
 H        -0.415709         1.126085        -0.407384
 H        -0.435938        -0.686929        -0.563251
 H         2.616548        -1.706813         1.351489
 H         2.381107        -2.170240        -0.437626
 H         5.269839         0.141523         0.647928
 H         5.263121         0.259255        -1.107412
 H         4.974539         2.761077         0.275824
 H         3.916620         2.382034        -1.023525
 H         2.516471         0.333425         1.858769
