19
Iteration:  2060
 C         0.004455         0.217602         0.019940
 C         1.506673        -0.009795         0.113150
 C         2.275006        -1.372296         0.249979
 C         3.320223        -0.148601        -0.018764
 C         4.707280         0.563973        -0.251040
 C         4.031887         2.028585        -0.213467
 O         2.940374         2.070334         0.799857
 C         2.600519         0.771731         1.017734
 O         2.361416         0.342684        -1.031492
 H        -0.431281         0.058835         1.018990
 H        -0.063510         1.259608        -0.310605
 H        -0.463232        -0.538236        -0.577309
 H         2.306719        -2.119138         1.134922
 H         2.164442        -1.858785        -0.718139
 H         5.468330         0.217343         0.448870
 H         5.086610         0.474622        -1.263050
 H         4.768353         2.769134         0.192340
 H         3.706746         2.211916        -1.189664
 H         2.800486         0.355484         2.003275
