19
Iteration:  1084
 C         0.003995         0.248692         0.034469
 C         1.442144        -0.096432         0.005134
 C         2.479719        -1.301041         0.171862
 C         3.278856        -0.031098         0.049667
 C         4.604460         0.473899        -0.198086
 C         4.210388         1.914505        -0.180814
 O         2.979451         2.099405         0.732899
 C         2.521323         0.855113         1.094834
 O         2.238474         0.285624        -1.039384
 H        -0.616138        -0.196558         0.797438
 H        -0.100362         1.313394         0.176512
 H        -0.472409         0.065587        -0.966913
 H         2.441539        -1.691160         1.150912
 H         2.593862        -2.034776        -0.633173
 H         5.189192         0.168256         0.782019
 H         5.177065         0.079144        -1.180826
 H         5.008199         2.638956         0.118309
 H         3.788911         2.306368        -1.193374
 H         2.534895         0.477659         2.167440
