19
Iteration:  3846
 C         0.025716         0.107075        -0.012399
 C         1.435651        -0.056730         0.086034
 C         2.420174        -1.268062         0.380334
 C         3.221640        -0.013852        -0.095439
 C         4.549320         0.512564        -0.260960
 C         4.288118         2.008321        -0.011035
 O         3.023734         2.140417         0.860504
 C         2.560077         0.853172         0.927253
 O         2.208166         0.211358        -1.225543
 H        -0.462109         0.118637         0.937411
 H        -0.211699         1.080735        -0.503440
 H        -0.331837        -0.762045        -0.604305
 H         2.494829        -1.610771         1.356865
 H         2.245362        -2.069332        -0.415212
 H         5.127139         0.129482         0.598694
 H         5.103905         0.326736        -1.184679
 H         5.059200         2.528178         0.571137
 H         4.125814         2.459129        -1.036652
 H         2.651212         0.514364         1.990397
