19
Iteration:    40
 C        -0.037517         0.252771         0.241464
 C         1.485411         0.027696         0.021569
 C         2.337926        -1.210836         0.204400
 C         3.347000        -0.135014        -0.080444
 C         4.749342         0.525216        -0.068545
 C         4.119304         2.020584        -0.021814
 O         2.926088         2.043381         0.707158
 C         2.479397         0.759095         0.848106
 O         2.305303         0.217077        -1.217018
 H        -0.163973         0.239847         1.343745
 H        -0.423613         1.221719        -0.161020
 H        -0.535352        -0.616827        -0.210305
 H         2.409154        -1.784632         1.143182
 H         2.323416        -1.805951        -0.753210
 H         5.347111         0.151389         0.835706
 H         5.487635         0.328659        -0.946520
 H         4.867891         2.700327         0.461820
 H         4.030414         2.160849        -1.164563
 H         2.703556         0.413075         1.899780
