19
Iteration:   595
 C        -0.043736         0.204694         0.031277
 C         1.498808         0.054958         0.068236
 C         2.434780        -1.338929         0.205807
 C         3.269255        -0.116981        -0.095119
 C         4.613382         0.531344        -0.201029
 C         4.174580         1.967862        -0.095766
 O         3.006107         2.061305         0.858981
 C         2.471359         0.735758         0.999021
 O         2.341429         0.354361        -1.133000
 H        -0.489947         0.226748         1.033266
 H        -0.229990         1.102620        -0.548791
 H        -0.549646        -0.587894        -0.547972
 H         2.704301        -1.733755         1.157081
 H         1.933334        -2.150991        -0.375635
 H         5.180787         0.351208         0.682981
 H         5.208715         0.553044        -1.183680
 H         5.011659         2.566740         0.355204
 H         3.859101         2.347384        -1.071003
 H         2.318269         0.262516         1.971784
