19
Iteration:  2008charge 0 multiplicity 1
 C        -0.073545         0.073668        -0.027963
 C         1.437552        -0.067719         0.157665
 C         2.396669        -1.256998         0.294044
 C         3.262284        -0.067587        -0.145031
 C         4.675552         0.505524        -0.282597
 C         4.222208         2.045674        -0.066720
 O         3.097058         2.147369         0.828029
 C         2.572023         0.802840         1.013177
 O         2.166776         0.290029        -1.111126
 H        -0.656865        -0.497126         0.659600
 H        -0.289379         1.110406         0.107576
 H        -0.368675        -0.377123        -1.022237
 H         2.416147        -1.520272         1.290293
 H         2.228693        -2.121679        -0.388407
 H         5.236028         0.112763         0.568400
 H         5.058314         0.446905        -1.293667
 H         5.146174         2.716874         0.257034
 H         3.862406         2.371473        -1.040036
 H         2.756851         0.389802         2.119534
