19
Iteration:  3098
 C         0.011625         0.326806         0.049917
 C         1.487595         0.009802         0.108083
 C         2.427808        -1.338927         0.296616
 C         3.321888        -0.224249         0.018295
 C         4.630873         0.541706        -0.245712
 C         4.056519         2.064355        -0.159275
 O         2.953910         2.068896         0.799444
 C         2.533017         0.740932         0.930434
 O         2.324631         0.251125        -1.118914
 H        -0.607264        -0.092766         0.944026
 H         0.033253         1.412920        -0.058587
 H        -0.503725         0.016372        -0.820827
 H         2.485148        -1.813125         1.288824
 H         2.439236        -2.112224        -0.471390
 H         5.345390         0.399875         0.704227
 H         5.019935         0.330092        -1.246193
 H         4.917734         2.658202         0.105228
 H         3.732510         2.239205        -1.194366
 H         2.573070         0.443511         1.919794
