19
Iteration:  2337
 C        -0.073020         0.041376        -0.006821
 C         1.461186         0.027072         0.084367
 C         2.307633        -1.281660         0.320461
 C         3.262073        -0.102924         0.002416
 C         4.622599         0.528284        -0.284112
 C         4.116675         2.019309        -0.254251
 O         3.152954         2.133547         0.878671
 C         2.533990         0.817645         1.036287
 O         2.359317         0.303340        -1.109813
 H        -0.575045        -0.425328         0.862511
 H        -0.333920         1.140347         0.048341
 H        -0.428511        -0.378459        -0.997277
 H         2.387509        -1.832021         1.381905
 H         2.096617        -1.939414        -0.489463
 H         5.378062         0.224642         0.465465
 H         4.871358         0.361414        -1.375161
 H         5.074447         2.485998         0.001201
 H         3.651385         2.399324        -1.083122
 H         2.441590         0.440388         2.146010
