19
Iteration:   415charge 0 multiplicity 1
 C         0.064990         0.233114        -0.104907
 C         1.452150        -0.002805         0.173959
 C         2.287191        -1.344381         0.215083
 C         3.296241        -0.111461        -0.053723
 C         4.673733         0.557311        -0.289728
 C         4.227585         2.137463        -0.055595
 O         2.946607         2.016289         0.792539
 C         2.571023         0.713305         1.092079
 O         2.235239         0.284714        -1.039635
 H        -0.622954         0.340744         0.771343
 H        -0.085435         1.093716        -0.788226
 H        -0.179093        -0.643746        -0.775568
 H         2.341210        -1.872022         1.172360
 H         2.093610        -2.009045        -0.678746
 H         5.507636        -0.030707         0.257433
 H         5.023478         0.553266        -1.328081
 H         4.981665         2.643897         0.534504
 H         3.909563         2.753943        -0.946137
 H         2.766125         0.213662         2.055546
