19
Iteration:  4313
 C         0.009103         0.209335         0.188428
 C         1.470953        -0.057745         0.036750
 C         2.497702        -1.330661         0.311155
 C         3.261528        -0.041643        -0.080092
 C         4.699628         0.478257        -0.138373
 C         4.337746         2.008380         0.158487
 O         2.839254         2.106253         0.470056
 C         2.480818         0.822440         0.856877
 O         2.189745         0.220392        -1.184548
 H        -0.580586        -0.197980         1.036132
 H        -0.274219         1.311257         0.213337
 H        -0.746841        -0.142229        -0.598510
 H         2.724473        -1.424924         1.381571
 H         2.397612        -2.172299        -0.341433
 H         5.349482         0.128819         0.661044
 H         5.291997         0.377600        -1.105721
 H         4.830695         2.497242         0.984015
 H         4.378741         2.628303        -0.739089
 H         2.591334         0.753185         1.959329
