19
Iteration:  2656
 C        -0.110952         0.080281        -0.079061
 C         1.458554        -0.039981         0.109276
 C         2.474476        -1.326592         0.408760
 C         3.249699        -0.027605        -0.096154
 C         4.562946         0.534298        -0.271054
 C         4.322362         2.049416        -0.056489
 O         3.082647         2.149072         0.835240
 C         2.528101         0.792725         0.916461
 O         2.174794         0.277624        -1.125465
 H        -0.708991        -0.016073         0.903916
 H        -0.396661         1.006404        -0.572635
 H        -0.556980        -0.757178        -0.633794
 H         2.552216        -1.746931         1.367369
 H         2.438491        -2.186302        -0.343562
 H         5.227740         0.006868         0.486601
 H         5.139813         0.324728        -1.174098
 H         5.098115         2.755135         0.565137
 H         4.103997         2.603556        -1.005149
 H         2.683494         0.488278         1.906583
