19
Iteration:  1486
 C         0.005095         0.000420         0.064479
 C         1.479806        -0.033688         0.088289
 C         2.364204        -1.216434         0.230064
 C         3.277427        -0.041766         0.055626
 C         4.520926         0.449633        -0.271166
 C         4.246196         1.982121        -0.082411
 O         3.005099         2.116116         0.785035
 C         2.507384         0.834114         0.920797
 O         2.346186         0.395002        -1.125308
 H        -0.302303        -0.333743         1.108140
 H        -0.213211         1.110155        -0.085091
 H        -0.456352        -0.526365        -0.786401
 H         2.358858        -1.760534         1.206397
 H         2.241205        -1.816286        -0.631434
 H         5.189644         0.167020         0.565627
 H         4.727600         0.098914        -1.356961
 H         5.049975         2.371710         0.650111
 H         4.046811         2.422351        -1.176768
 H         2.452090         0.455550         1.920093
