19
Iteration:  2169
 C        -0.079101        -0.024850        -0.010730
 C         1.417160        -0.030124         0.250150
 C         2.438739        -1.239969         0.353601
 C         3.238615        -0.012156        -0.097244
 C         4.608764         0.441648        -0.386233
 C         4.325669         1.978424         0.132769
 O         3.000238         2.190894         0.563630
 C         2.570778         0.857060         0.938129
 O         2.221332         0.331215        -1.057570
 H        -0.572140        -0.386883         0.915846
 H        -0.576458         0.961734        -0.082856
 H        -0.280993        -0.526194        -0.997189
 H         2.761459        -1.784084         1.300335
 H         2.221897        -1.933736        -0.559193
 H         5.235170        -0.089209         0.356747
 H         4.812498         0.315332        -1.426376
 H         4.980223         2.229267         0.944793
 H         4.463629         2.693737        -0.630788
 H         2.683053         0.586353         1.949120
