19
Iteration:  4880charge 0 multiplicity 1
 C         0.042636         0.041364        -0.161291
 C         1.407855        -0.017698         0.249313
 C         2.312968        -1.244355         0.446935
 C         3.290852        -0.065119         0.027499
 C         4.602816         0.493267        -0.306890
 C         4.270422         2.038024        -0.064949
 O         3.015485         2.136296         0.590916
 C         2.569859         0.844394         1.010685
 O         2.235962         0.282843        -1.044293
 H        -0.784511        -0.370419         0.538043
 H        -0.195154         1.066830        -0.514554
 H        -0.002728        -0.718112        -1.074482
 H         2.530663        -1.688050         1.442697
 H         2.099502        -1.985742        -0.411791
 H         5.493029         0.166437         0.209756
 H         4.720550         0.166871        -1.325190
 H         4.956912         2.379146         0.754822
 H         4.051199         2.701430        -0.852739
 H         2.661280         0.554325         2.111433
