19
Iteration:  1549charge 0 multiplicity 1
 C         0.048528         0.331156         0.003138
 C         1.479339        -0.036892         0.119704
 C         2.576210        -1.390663         0.253150
 C         3.277713        -0.088931        -0.098061
 C         4.543395         0.540984        -0.250237
 C         4.079761         1.971238        -0.069582
 O         3.011283         2.111478         0.839629
 C         2.509024         0.750878         0.952716
 O         2.225309         0.259563        -1.104783
 H        -0.466623         0.390575         1.002740
 H        -0.104572         1.379380        -0.373039
 H        -0.542881        -0.385844        -0.571607
 H         2.704079        -1.884050         1.263255
 H         2.467912        -2.037798        -0.650805
 H         5.151547        -0.046237         0.560748
 H         5.269388         0.347461        -1.141666
 H         4.945427         2.585763         0.244159
 H         3.643706         2.279113        -1.046822
 H         2.501198         0.552142         2.064618
