19
Iteration:  1251charge 0 multiplicity 1
 C         0.052436         0.198087        -0.022782
 C         1.407931         0.011780         0.051943
 C         2.466813        -1.393289         0.331984
 C         3.245017        -0.097718        -0.007496
 C         4.708334         0.510295        -0.229628
 C         4.210637         2.056279        -0.024506
 O         3.006427         2.104369         0.726281
 C         2.502093         0.794692         0.968545
 O         2.161174         0.263162        -1.135181
 H        -0.323796        -0.155091         0.943845
 H        -0.176190         1.241622         0.221112
 H        -0.550376        -0.044008        -0.860997
 H         2.647989        -1.932883         1.230282
 H         2.459889        -1.933464        -0.582156
 H         5.161300         0.001192         0.669182
 H         5.112255         0.046502        -1.215625
 H         4.877569         2.825152         0.379954
 H         4.071159         2.481157        -1.051858
 H         2.439637         0.677938         2.025991
