19
Iteration:  4756charge 0 multiplicity 1
 C        -0.010612         0.067314        -0.152631
 C         1.419686        -0.044221         0.130977
 C         2.317079        -1.303566         0.392139
 C         3.321927        -0.113404         0.097712
 C         4.546213         0.552401        -0.218181
 C         4.230029         2.072117        -0.192264
 O         3.088949         2.181244         0.764788
 C         2.542775         0.840433         0.981821
 O         2.256642         0.210785        -1.094132
 H        -0.608470         0.129242         0.797703
 H        -0.106167         1.127516        -0.632756
 H        -0.352519        -0.789533        -0.806471
 H         2.561237        -1.838260         1.374044
 H         2.304917        -2.034749        -0.406952
 H         5.243280         0.427473         0.560511
 H         4.834550         0.300759        -1.239838
 H         5.007785         2.525910         0.357224
 H         4.076070         2.560546        -1.214466
 H         2.628465         0.518222         2.047352
