19
Iteration:   878
 C         0.063781         0.304375        -0.062384
 C         1.433413         0.054284         0.150895
 C         2.306409        -1.350122         0.353922
 C         3.333645        -0.190242        -0.093676
 C         4.767707         0.617081        -0.229768
 C         4.171265         1.995590        -0.102985
 O         2.881383         2.057787         0.829974
 C         2.567964         0.688265         0.911768
 O         2.272264         0.285206        -1.065883
 H        -0.529317        -0.232733         0.697214
 H        -0.131296         1.392713         0.048354
 H        -0.185194        -0.053398        -1.105968
 H         2.385925        -2.027081         1.310197
 H         2.139126        -2.032485        -0.568582
 H         5.374890         0.240676         0.551199
 H         5.125288         0.375618        -1.272960
 H         4.746106         2.877495         0.206327
 H         3.823998         2.214539        -1.132918
 H         2.584611         0.376304         1.952602
