19
Iteration:  3282charge 0 multiplicity 1
 C         0.074602         0.303078         0.035462
 C         1.520522         0.001871         0.093084
 C         2.354875        -1.320643         0.385310
 C         3.260348        -0.110034        -0.085265
 C         4.598977         0.553739        -0.314947
 C         4.232157         2.033766        -0.004718
 O         2.884208         2.151514         0.734177
 C         2.538047         0.701857         0.952428
 O         2.294549         0.135322        -1.158280
 H        -0.380463        -0.169428         0.981055
 H        -0.258111         1.310891        -0.092322
 H        -0.340516        -0.324985        -0.747409
 H         2.462447        -1.862085         1.414159
 H         2.161461        -2.081561        -0.358270
 H         5.278785         0.423166         0.506310
 H         5.002873         0.466348        -1.273036
 H         4.964592         2.705564         0.551076
 H         4.096822         2.619545        -0.877879
 H         2.718128         0.406458         1.977270
