19
Iteration:  2347charge 0 multiplicity 1
 C        -0.023417         0.079908        -0.030417
 C         1.470728         0.031336         0.112771
 C         2.321130        -1.337248         0.304201
 C         3.280131        -0.061996         0.017321
 C         4.618615         0.474803        -0.332514
 C         4.151688         2.063266        -0.223514
 O         3.122542         2.117823         0.859968
 C         2.560081         0.802584         1.040562
 O         2.255041         0.317651        -1.084329
 H        -0.528544        -0.542179         0.727089
 H        -0.399476         1.154463        -0.039470
 H        -0.389986        -0.392784        -1.042960
 H         2.191023        -1.838289         1.377012
 H         2.309360        -2.073876        -0.469317
 H         5.282179         0.200497         0.521204
 H         5.221338         0.101684        -1.236757
 H         4.843883         2.904316         0.051039
 H         3.814943         2.238566        -1.168061
 H         2.595300         0.704610         2.251403
