19
Iteration:  1571
 C        -0.082670         0.329750         0.013421
 C         1.468341         0.020524         0.053492
 C         2.430483        -1.376997         0.329289
 C         3.345930        -0.104787         0.016684
 C         4.661431         0.593332        -0.315368
 C         4.172662         2.092440        -0.124757
 O         2.952962         2.004214         0.828910
 C         2.526941         0.659015         1.006161
 O         2.293232         0.246371        -1.147310
 H        -0.479319         0.170215         1.054589
 H        -0.169894         1.449916        -0.182199
 H        -0.586626        -0.376652        -0.636270
 H         2.487524        -1.840319         1.385505
 H         2.326669        -2.089855        -0.503001
 H         5.654163         0.154280         0.141301
 H         4.972918         0.293956        -1.423483
 H         4.806138         2.768034         0.474891
 H         3.816518         2.613207        -1.031172
 H         2.479651         0.335026         2.105190
