19
Iteration:  4989charge 0 multiplicity 1
 C         0.053259         0.275434        -0.001695
 C         1.549432         0.000176         0.089289
 C         2.417994        -1.322430         0.356847
 C         3.318956        -0.209467         0.058462
 C         4.659380         0.523779        -0.204281
 C         4.155307         2.018507        -0.093253
 O         2.774171         2.049413         0.581212
 C         2.482481         0.779617         0.979632
 O         2.358705         0.345156        -1.097699
 H        -0.198520         0.032042         1.092098
 H        -0.205046         1.364475        -0.086544
 H        -0.530444        -0.388582        -0.745521
 H         2.448233        -1.738118         1.385132
 H         2.371676        -2.238052        -0.283909
 H         5.373057         0.154002         0.495506
 H         4.909314         0.298589        -1.187055
 H         4.894918         2.594924         0.480472
 H         4.171538         2.449904        -1.127457
 H         2.517003         0.422661         2.051278
