19
Iteration:  4839
 C        -0.071349         0.175816         0.124250
 C         1.468222        -0.017451         0.073061
 C         2.418398        -1.256022         0.389086
 C         3.290995        -0.069154         0.037483
 C         4.621340         0.531252        -0.201865
 C         4.250044         2.074708         0.037819
 O         2.947344         2.100306         0.598369
 C         2.455111         0.849463         0.845355
 O         2.324513         0.120091        -1.220144
 H        -0.657815        -0.147997         0.969660
 H        -0.251443         1.214146        -0.053402
 H        -0.491146        -0.263224        -0.748060
 H         2.392185        -1.626225         1.408048
 H         2.454222        -2.086178        -0.345083
 H         5.388207         0.158013         0.576579
 H         5.109117         0.283194        -1.160265
 H         5.082415         2.474478         0.707859
 H         4.407009         2.503973        -0.943762
 H         2.544339         0.549125         1.901520
