19
Iteration:  4701
 C         0.035590         0.097177        -0.135667
 C         1.470065        -0.000507         0.083702
 C         2.327095        -1.278436         0.393381
 C         3.273543        -0.055619         0.078713
 C         4.542799         0.542030        -0.237827
 C         4.136639         2.013428        -0.245956
 O         3.126487         2.103096         0.806397
 C         2.486440         0.841634         1.039398
 O         2.324626         0.219121        -1.085934
 H        -0.405161        -0.373628         0.783999
 H        -0.272434         1.228123        -0.257106
 H        -0.205445        -0.436825        -1.102527
 H         2.269231        -1.772272         1.402102
 H         2.520824        -2.053042        -0.374562
 H         5.199871         0.246299         0.571115
 H         5.059402         0.308162        -1.169457
 H         4.750341         2.796467         0.061095
 H         3.713352         2.319038        -1.241606
 H         2.415306         0.716791         2.133300
