19
Iteration:  4714
 C         0.014993         0.055055        -0.166561
 C         1.516729         0.061989         0.033236
 C         2.345009        -1.247025         0.490282
 C         3.229035        -0.135728         0.053115
 C         4.578653         0.526552        -0.267246
 C         4.054148         2.028573        -0.200614
 O         3.096907         2.110675         0.887752
 C         2.579563         0.834296         0.995041
 O         2.370645         0.262659        -1.133457
 H        -0.631622        -0.358589         0.671720
 H        -0.430947         1.123101        -0.341819
 H        -0.308400        -0.630682        -1.043785
 H         2.334347        -1.343538         1.635399
 H         1.964736        -2.014272        -0.126584
 H         5.458413         0.434791         0.361348
 H         4.799408         0.112391        -1.269594
 H         5.010848         2.534737        -0.071188
 H         3.513412         2.273817        -1.147250
 H         2.526491         0.464884         2.059736
