19
Iteration:  4923charge 0 multiplicity 1
 C        -0.032497         0.010935        -0.048091
 C         1.483834        -0.032123         0.070843
 C         2.363428        -1.204991         0.427220
 C         3.243219        -0.065884         0.029891
 C         4.625711         0.445689        -0.201310
 C         4.197921         2.009305        -0.150067
 O         3.060819         2.085011         0.756398
 C         2.453193         0.808333         0.902304
 O         2.334005         0.361635        -1.141299
 H        -0.332566         0.042098         1.080225
 H        -0.233475         1.062222        -0.357332
 H        -0.569038        -0.844791        -0.681800
 H         2.370001        -1.393262         1.510984
 H         2.287603        -2.044721        -0.349577
 H         5.321115         0.257010         0.588493
 H         5.041440         0.331794        -1.172006
 H         4.900095         2.665619         0.377159
 H         3.978559         2.306810        -1.201924
 H         2.428664         0.866720         2.028655
