19
Iteration:  1760charge 0 multiplicity 1
 C         0.027105         0.229060         0.076954
 C         1.457128        -0.037763         0.085831
 C         2.305239        -1.287266         0.328170
 C         3.323748        -0.125306        -0.052946
 C         4.679053         0.581006        -0.295655
 C         4.113783         2.103213        -0.100194
 O         2.970482         2.010123         0.811887
 C         2.592999         0.646051         0.971600
 O         2.320336         0.351979        -1.145341
 H        -0.471499         0.001241         0.985585
 H        -0.056332         1.242031        -0.209978
 H        -0.326596        -0.355313        -0.809357
 H         1.993110        -1.522439         1.319018
 H         2.112522        -2.155110        -0.329471
 H         5.468464         0.129158         0.290217
 H         4.909543         0.322502        -1.292445
 H         4.851647         2.673520         0.339670
 H         3.720563         2.387227        -1.068854
 H         2.684723         0.227477         1.984803
