19
Iteration:  2204
 C        -0.081360         0.069164         0.090048
 C         1.455405        -0.042767         0.061250
 C         2.346488        -1.248567         0.433435
 C         3.318544        -0.056801        -0.052736
 C         4.655976         0.511430        -0.348605
 C         4.339561         2.077217         0.181130
 O         3.031463         2.177198         0.650762
 C         2.542106         0.802139         0.846664
 O         2.131177         0.222009        -1.201871
 H        -0.374091        -0.474073         0.965529
 H        -0.374788         1.104294         0.045614
 H        -0.652313        -0.611171        -0.635438
 H         2.682012        -1.698546         1.419879
 H         2.200197        -2.100728        -0.356924
 H         5.447514        -0.104587         0.112743
 H         4.966129         0.466118        -1.418511
 H         5.078504         2.423208         0.949865
 H         4.420581         2.728228        -0.628572
 H         2.601570         0.594983         1.857371
