19
Iteration:   748
 C        -0.015004         0.143677         0.082216
 C         1.479137         0.009352         0.038741
 C         2.327317        -1.378083         0.223911
 C         3.329240        -0.181395        -0.051083
 C         4.582155         0.465156        -0.249704
 C         4.306125         2.072012         0.101469
 O         2.872441         2.092210         0.634535
 C         2.519945         0.812651         1.005636
 O         2.328289         0.390735        -1.150862
 H        -0.375557        -0.086932         1.116805
 H        -0.177048         1.249811        -0.128807
 H        -0.538957        -0.521839        -0.681657
 H         2.451219        -1.705638         1.252322
 H         1.992628        -2.146911        -0.532819
 H         5.328848         0.144746         0.471890
 H         5.157728         0.304909        -1.304510
 H         5.031629         2.257798         0.885705
 H         4.419020         2.733072        -0.766169
 H         2.670798         0.776690         2.161639
