19
Iteration:  3783charge 0 multiplicity 1
 C         0.055619         0.268819         0.039974
 C         1.553512        -0.070348         0.133105
 C         2.450085        -1.313274         0.288317
 C         3.301216        -0.138931         0.007283
 C         4.661837         0.469208        -0.362416
 C         4.192986         1.980446         0.118991
 O         2.814275         2.111991         0.507986
 C         2.560831         0.836105         0.967574
 O         2.221361         0.296413        -1.044573
 H        -0.478718        -0.097618         0.925894
 H        -0.144193         1.397010        -0.111357
 H        -0.447155        -0.330563        -0.821227
 H         2.604011        -1.862962         1.283703
 H         2.235984        -2.085313        -0.582180
 H         5.359152         0.076942         0.360036
 H         4.862784         0.350295        -1.357867
 H         4.742371         2.171692         1.157840
 H         4.296864         2.787802        -0.603072
 H         2.604518         0.725217         2.048006
