19
Iteration:  1458
 C        -0.119113         0.051994        -0.044028
 C         1.407073         0.025154         0.137303
 C         2.409229        -1.291551         0.280809
 C         3.277006        -0.049663        -0.100624
 C         4.653080         0.568443        -0.258576
 C         4.414891         2.058605         0.021120
 O         3.014178         2.068745         0.723459
 C         2.583651         0.807515         0.965918
 O         2.139383         0.289955        -1.091438
 H        -0.508286        -0.466407         0.834614
 H        -0.601686         0.999334         0.079724
 H        -0.518253        -0.419087        -0.960094
 H         2.702717        -1.568431         1.313688
 H         2.096199        -2.176228        -0.370828
 H         5.302713         0.084810         0.514100
 H         5.077401         0.343129        -1.201840
 H         5.057671         2.627394         0.598122
 H         4.374431         2.433413        -0.954440
 H         2.571464         0.413481         2.045223
