19
Iteration:   948charge 0 multiplicity 1
 C        -0.065701         0.024836         0.047390
 C         1.482439         0.095835         0.116194
 C         2.222540        -1.243592         0.241450
 C         3.323183        -0.093176         0.029358
 C         4.638440         0.428209        -0.214146
 C         4.337024         2.040132        -0.042317
 O         2.950345         2.082665         0.641773
 C         2.561203         0.776241         0.982272
 O         2.303331         0.388326        -1.116169
 H        -0.487266        -0.253801         1.039939
 H        -0.539806         0.920772        -0.389457
 H        -0.146699        -0.798115        -0.655865
 H         2.184296        -1.824439         1.208611
 H         2.294895        -1.930519        -0.595061
 H         5.341770         0.184948         0.642517
 H         5.001873         0.282802        -1.216044
 H         5.087547         2.523579         0.566658
 H         4.177593         2.641617        -0.904984
 H         2.560635         0.434390         2.005081
