19
Iteration:  2650
 C        -0.072416         0.096938        -0.064464
 C         1.439392        -0.081532         0.092766
 C         2.497724        -1.317223         0.365893
 C         3.230452        -0.068618        -0.130545
 C         4.533654         0.553064        -0.249767
 C         4.317383         2.075395        -0.011677
 O         3.087995         2.156024         0.829946
 C         2.594488         0.790271         0.950531
 O         2.167851         0.247506        -1.139003
 H        -0.632259         0.070052         0.821920
 H        -0.175079         1.082402        -0.575423
 H        -0.702147        -0.662393        -0.668719
 H         2.427866        -1.601733         1.521962
 H         2.303208        -2.148352        -0.240095
 H         5.156802         0.168182         0.523750
 H         5.110224         0.426596        -1.193538
 H         5.109447         2.688956         0.197125
 H         3.946366         2.499776        -0.950267
 H         2.400849         0.492510         2.112353
