19
Iteration:  2143
 C         0.000101         0.021759         0.080582
 C         1.480225         0.004849         0.079118
 C         2.247344        -1.280393         0.345866
 C         3.300607        -0.076592         0.018806
 C         4.629063         0.583904        -0.382306
 C         4.329711         1.976534         0.085140
 O         2.956072         2.104060         0.555075
 C         2.561551         0.775403         0.992842
 O         2.256976         0.370858        -1.095142
 H        -0.354406        -0.362855         1.085430
 H        -0.644204         0.895240        -0.168719
 H        -0.154108        -0.596274        -0.770753
 H         2.267715        -1.643920         1.346179
 H         2.214308        -2.010149        -0.377049
 H         5.352919         0.054540         0.250471
 H         4.840810         0.463584        -1.480395
 H         5.032996         2.375292         0.814834
 H         4.425645         2.750768        -0.795424
 H         2.548531         0.466970         2.126119
