19
Iteration:  3753charge 0 multiplicity 1
 C        -0.104191         0.145397         0.103360
 C         1.427142        -0.076017         0.075310
 C         2.366361        -1.293081         0.319759
 C         3.270868        -0.071273        -0.137892
 C         4.655961         0.558137        -0.228332
 C         4.377088         2.090969         0.150855
 O         2.981672         2.076783         0.561382
 C         2.560132         0.845772         0.929945
 O         2.232261         0.224921        -1.157121
 H        -0.519271        -0.313815         0.990384
 H        -0.548817         1.140426         0.191853
 H        -0.671231        -0.405708        -0.676815
 H         2.599588        -1.508125         1.406908
 H         2.206992        -2.153739        -0.344313
 H         5.260733        -0.067068         0.529231
 H         5.060274         0.385750        -1.307430
 H         5.075972         2.474027         0.880763
 H         4.367828         2.757319        -0.667150
 H         2.627384         0.516658         1.994865
