19
Iteration:   483
 C        -0.126606        -0.036322         0.125823
 C         1.392425         0.108483         0.118035
 C         2.262842        -1.292388         0.127603
 C         3.218483        -0.080411        -0.138463
 C         4.672711         0.498493        -0.090351
 C         4.345375         1.972321        -0.017573
 O         3.013581         2.159359         0.757562
 C         2.592143         0.785232         1.001807
 O         2.337169         0.363173        -1.261590
 H        -0.274999        -0.621637         1.060071
 H        -0.718396         0.929874         0.144552
 H        -0.472889        -0.595261        -0.749017
 H         2.225562        -1.671862         1.198342
 H         2.363648        -1.956383        -0.684078
 H         5.267852         0.203733         0.873821
 H         5.296700         0.476058        -0.997101
 H         5.066388         2.537961         0.646800
 H         4.209110         2.391625        -1.015950
 H         2.660156         0.539770         2.091367
