19
Iteration:  1779charge 0 multiplicity 1
 C         0.014213         0.164052         0.082517
 C         1.522039         0.101705         0.025448
 C         2.301548        -1.325274         0.236210
 C         3.300432        -0.141935        -0.027612
 C         4.609816         0.539636        -0.281852
 C         4.107467         2.014039        -0.120218
 O         3.055526         2.062190         0.832597
 C         2.522740         0.783028         0.988171
 O         2.336958         0.275541        -1.120770
 H        -0.327073        -0.358208         1.028334
 H        -0.406816         1.212752         0.147191
 H        -0.701309        -0.404947        -0.586229
 H         2.516109        -1.923192         1.277205
 H         2.214226        -1.946701        -0.666618
 H         5.349778         0.281589         0.596786
 H         5.107474         0.412686        -1.319242
 H         4.891901         2.760877         0.285036
 H         3.785696         2.500419        -1.041380
 H         2.281833         0.489001         2.093150
