19
Iteration:  2413charge 0 multiplicity 1
 C         0.022216         0.193134         0.211375
 C         1.510782        -0.003603         0.023268
 C         2.355541        -1.312104         0.278701
 C         3.292624        -0.170573         0.071044
 C         4.670870         0.626243        -0.304303
 C         4.262380         1.998214         0.038335
 O         2.943237         2.077777         0.645662
 C         2.503429         0.831422         0.949956
 O         2.250561         0.237272        -1.252895
 H        -0.183728        -0.154451         1.231592
 H        -0.217229         1.276344        -0.047848
 H        -0.614129        -0.553744        -0.368703
 H         2.091851        -1.780852         1.257117
 H         2.323534        -2.008807        -0.475105
 H         5.369846         0.226112         0.438096
 H         4.944389         0.416381        -1.377710
 H         4.884556         2.646976         0.662209
 H         4.147068         2.477144        -0.869119
 H         2.264536         0.511730         2.070433
