19
Iteration:  2113charge 0 multiplicity 1
 C        -0.090893         0.207018         0.153865
 C         1.452801        -0.019291         0.077478
 C         2.430687        -1.326710         0.282525
 C         3.300317        -0.138358        -0.095267
 C         4.667777         0.522023        -0.292574
 C         4.254649         2.040324         0.052298
 O         2.919008         2.218237         0.779645
 C         2.541193         0.763613         0.921950
 O         2.262783         0.204143        -1.216122
 H        -0.438703         0.020038         1.214647
 H        -0.329821         1.218579        -0.304941
 H        -0.434991        -0.544651        -0.557396
 H         2.655154        -1.662343         1.373242
 H         2.317720        -2.165947        -0.401412
 H         5.412920        -0.017124         0.299612
 H         5.106769         0.394088        -1.268599
 H         5.013783         2.573381         0.559875
 H         4.145077         2.441631        -1.002774
 H         2.483962         0.455267         1.901321
