19
Iteration:  2255charge 0 multiplicity 1
 C        -0.014491         0.211581         0.135215
 C         1.494030        -0.014768         0.129273
 C         2.414423        -1.364348         0.233129
 C         3.355148        -0.126345        -0.008319
 C         4.668675         0.547360        -0.278786
 C         4.264459         1.959781         0.035337
 O         2.858011         2.102939         0.562720
 C         2.547830         0.786014         0.877482
 O         2.195301         0.325462        -1.056590
 H        -0.343474         0.279026         1.230691
 H        -0.231168         1.182464        -0.360390
 H        -0.645655        -0.542837        -0.366699
 H         2.368566        -1.675994         1.241851
 H         2.441280        -2.186432        -0.551287
 H         5.404784         0.053507         0.401151
 H         5.146498         0.371299        -1.203330
 H         4.896307         2.397057         0.807004
 H         4.274642         2.760976        -0.810759
 H         2.591538         0.566266         2.061643
