19
Iteration:  4378charge 0 multiplicity 1
 C        -0.058216         0.027137        -0.082251
 C         1.402759        -0.037359         0.048646
 C         2.391864        -1.261862         0.457672
 C         3.260095        -0.089940        -0.006759
 C         4.595349         0.553067        -0.295008
 C         4.229791         2.023143        -0.065512
 O         3.123024         2.096780         0.814262
 C         2.456094         0.881312         0.886379
 O         2.282555         0.297961        -1.102628
 H        -0.582536        -0.056004         0.907342
 H        -0.189107         0.998229        -0.648325
 H        -0.331715        -0.881714        -0.739676
 H         2.591209        -1.351796         1.560814
 H         2.391141        -2.208096        -0.082301
 H         5.374739         0.209746         0.476810
 H         4.940144         0.176541        -1.371456
 H         5.089148         2.559209         0.305599
 H         4.015849         2.526721        -1.014952
 H         2.402884         0.620204         1.940803
