19
Iteration:  2659charge 0 multiplicity 1
 C        -0.119355         0.070503        -0.068055
 C         1.447198        -0.024533         0.111425
 C         2.456565        -1.322064         0.398890
 C         3.246513        -0.026326        -0.081824
 C         4.602127         0.529882        -0.276098
 C         4.314395         2.053717        -0.063230
 O         3.079798         2.139352         0.829610
 C         2.506253         0.803843         0.911684
 O         2.182785         0.283987        -1.120249
 H        -0.641584         0.011345         0.895692
 H        -0.451285         0.995968        -0.562619
 H        -0.467778        -0.849388        -0.708323
 H         2.643650        -1.783449         1.430405
 H         2.470193        -2.087744        -0.346919
 H         5.208436         0.026861         0.482388
 H         5.114625         0.290746        -1.240952
 H         5.033943         2.622731         0.609454
 H         4.177829         2.572799        -0.971757
 H         2.786811         0.464057         1.906991
