19
Iteration:   929charge 0 multiplicity 1
 C        -0.035831         0.115645         0.070533
 C         1.416616        -0.008425        -0.032148
 C         2.403524        -1.291431         0.255942
 C         3.279713        -0.082521         0.012475
 C         4.694057         0.463933        -0.185625
 C         4.204624         1.914183        -0.013295
 O         2.983244         2.136166         0.709688
 C         2.483395         0.853254         0.957099
 O         2.330654         0.353587        -1.140174
 H        -0.178716        -0.284340         1.060829
 H        -0.270300         1.177183         0.165442
 H        -0.656434        -0.404560        -0.636571
 H         2.443043        -1.717240         1.180783
 H         2.084057        -2.047715        -0.474715
 H         5.357013        -0.063306         0.537785
 H         4.935718         0.389269        -1.205354
 H         4.958634         2.583166         0.458562
 H         4.042018         2.371224        -1.031224
 H         2.435787         0.640524         2.083526
