19
Iteration:  2177charge 0 multiplicity 1
 C        -0.055498         0.018054         0.034600
 C         1.445885        -0.054226         0.183473
 C         2.428997        -1.256556         0.355784
 C         3.212449         0.030653        -0.082218
 C         4.553040         0.514941        -0.369256
 C         4.395948         1.955787         0.112770
 O         3.011106         2.183311         0.569243
 C         2.528288         0.833449         0.967976
 O         2.177134         0.293414        -1.084784
 H        -0.701378        -0.641671         0.676387
 H        -0.438335         1.059326        -0.170654
 H        -0.170521        -0.613173        -0.805493
 H         2.686945        -1.746536         1.278438
 H         2.442068        -1.946988        -0.421343
 H         5.155206        -0.087296         0.352965
 H         5.024207         0.444884        -1.342830
 H         5.061062         2.107830         0.929891
 H         4.568897         2.715943        -0.752565
 H         2.766463         0.635637         2.098198
