19
Iteration:  3950charge 0 multiplicity 1
 C        -0.033821         0.297157        -0.049133
 C         1.372748        -0.091491         0.065206
 C         2.404490        -1.328673         0.484206
 C         3.309438        -0.131025        -0.148124
 C         4.692868         0.647638        -0.269731
 C         4.198231         2.140188        -0.007143
 O         3.014758         2.006468         0.795867
 C         2.522434         0.736104         0.887010
 O         2.250170         0.152735        -1.142393
 H        -0.751999        -0.187085         0.746253
 H        -0.060138         1.390546        -0.085314
 H        -0.368915         0.028419        -1.067622
 H         2.451120        -1.746614         1.583771
 H         2.548620        -2.274428         0.001357
 H         5.335526         0.386515         0.502724
 H         5.079846         0.517218        -1.307436
 H         4.850081         2.828766         0.662383
 H         4.040362         2.703643        -0.984573
 H         2.561880         0.606666         1.978440
