19
Iteration:  4720charge 0 multiplicity 1
 C        -0.037605         0.035790        -0.180626
 C         1.493204         0.091933         0.039608
 C         2.304266        -1.208118         0.542620
 C         3.293643        -0.151020         0.026919
 C         4.605327         0.483536        -0.285596
 C         4.054544         2.016468        -0.194471
 O         3.077105         2.133612         0.918754
 C         2.578333         0.785646         0.960136
 O         2.378588         0.272838        -1.130844
 H        -0.550302        -0.322226         0.690743
 H        -0.390471         1.000093        -0.496121
 H        -0.228281        -0.589847        -1.008493
 H         2.450067        -1.325514         1.581796
 H         1.876304        -2.102810        -0.019759
 H         5.626008         0.473516         0.176401
 H         4.947203         0.236444        -1.301852
 H         4.974301         2.618818        -0.077912
 H         3.429112         2.397925        -0.999491
 H         2.605802         0.512457         1.990653
