19
Iteration:  1090charge 0 multiplicity 1
 C        -0.020318         0.204852         0.014720
 C         1.449701        -0.049691         0.045318
 C         2.428871        -1.289490         0.183339
 C         3.268987        -0.080227         0.085344
 C         4.639038         0.491732        -0.198219
 C         4.220440         2.004332        -0.164486
 O         3.039445         2.068510         0.731551
 C         2.491496         0.812959         1.031369
 O         2.227384         0.284404        -1.058347
 H        -0.549112        -0.272952         0.862971
 H        -0.142302         1.304427         0.167467
 H        -0.352156        -0.024158        -0.996451
 H         2.440806        -1.655584         1.279518
 H         2.557912        -2.035413        -0.645830
 H         5.171853         0.168946         0.658611
 H         4.947169         0.172454        -1.116323
 H         5.102099         2.614634         0.036728
 H         3.802243         2.344254        -1.058919
 H         2.536748         0.652641         2.110855
