19
Iteration:  4811
 C         0.040731         0.140778         0.151468
 C         1.493090         0.012532         0.001323
 C         2.196324        -1.388130         0.316428
 C         3.318859        -0.151899        -0.035252
 C         4.704416         0.518496        -0.117510
 C         4.193047         2.147667         0.006921
 O         2.882064         2.153327         0.511540
 C         2.529459         0.854410         0.919110
 O         2.363645         0.210460        -1.149637
 H        -0.160208        -0.046502         1.242041
 H        -0.330238         1.215300        -0.019405
 H        -0.706397        -0.517850        -0.376297
 H         2.261198        -1.714223         1.408224
 H         2.073592        -2.178879        -0.384513
 H         5.200288         0.244695         0.786523
 H         5.459420         0.269525        -0.871259
 H         4.891925         2.503150         0.675491
 H         4.381102         2.390942        -1.059885
 H         2.807113         0.461149         1.918409
