19
Iteration:   268charge 0 multiplicity 1
 C        -0.088538         0.097235        -0.114508
 C         1.416707         0.019398         0.138582
 C         2.346613        -1.214881         0.370404
 C         3.274799        -0.086337        -0.103957
 C         4.617876         0.480119        -0.349420
 C         4.265556         2.132724         0.068965
 O         3.049400         2.057200         0.821204
 C         2.594799         0.753919         1.004821
 O         2.274893         0.275723        -1.138247
 H        -0.657521        -0.144546         0.805104
 H        -0.324072         1.056012        -0.675985
 H        -0.427109        -0.786434        -0.709125
 H         2.471580        -1.832745         1.310558
 H         2.339665        -1.966386        -0.421972
 H         5.402951         0.071763         0.275810
 H         4.708784         0.531258        -1.433812
 H         5.052957         2.679106         0.636002
 H         4.145565         2.526620        -0.924583
 H         2.490921         0.406763         2.073262
