19
Iteration:  3465charge 0 multiplicity 1
 C        -0.020518         0.187161         0.066515
 C         1.529489         0.043703         0.101845
 C         2.352702        -1.297247         0.329203
 C         3.322353        -0.171514         0.054013
 C         4.616898         0.516255        -0.297234
 C         4.193379         1.972363         0.080352
 O         2.884664         2.091944         0.509368
 C         2.559041         0.797052         0.910992
 O         2.267023         0.306894        -1.084905
 H        -0.470410         0.058200         1.118315
 H        -0.209995         1.172796        -0.311208
 H        -0.356710        -0.569904        -0.631614
 H         2.523915        -1.853306         1.262599
 H         2.288070        -1.921936        -0.502071
 H         5.551186         0.300871         0.450250
 H         5.037276         0.363131        -1.306733
 H         4.935790         2.265663         0.853166
 H         4.376773         2.713428        -0.696101
 H         2.771810         0.567756         2.051612
