19
Iteration:   144charge 0 multiplicity 1
 C        -0.134330         0.101377        -0.079587
 C         1.380214        -0.036638         0.001640
 C         2.452907        -1.284993         0.326037
 C         3.226360        -0.012616         0.003411
 C         4.677924         0.485423        -0.204062
 C         4.245077         1.997654        -0.131283
 O         3.131890         2.145913         0.899695
 C         2.540757         0.798262         0.946702
 O         2.205977         0.318355        -1.120397
 H        -0.464509        -0.601013         0.687339
 H        -0.507795         1.071373         0.144715
 H        -0.561847        -0.350456        -0.986947
 H         2.537833        -1.697964         1.330987
 H         2.537567        -2.118221        -0.366297
 H         5.372662         0.151756         0.567959
 H         4.836622         0.147705        -1.169817
 H         5.107309         2.649003         0.137008
 H         4.023135         2.332906        -1.141460
 H         2.570855         0.464715         2.014106
