19
Iteration:  2044
 C        -0.033020         0.179768         0.009299
 C         1.505247         0.071893         0.165780
 C         2.359042        -1.230235         0.182688
 C         3.376367        -0.126157         0.085360
 C         4.627668         0.530277        -0.323414
 C         4.070355         1.999877        -0.165142
 O         2.979674         2.019898         0.764377
 C         2.537359         0.693676         1.079449
 O         2.372775         0.334749        -1.054064
 H        -0.483359        -0.137309         0.990788
 H        -0.472539         1.179184        -0.270688
 H        -0.348854        -0.428606        -0.897528
 H         2.322385        -1.753489         1.212966
 H         2.224707        -1.969496        -0.640497
 H         5.612135         0.406244         0.207245
 H         5.022717         0.187171        -1.342001
 H         4.851763         2.765471        -0.007064
 H         3.484410         2.239715        -1.160239
 H         2.362219         0.459344         2.180050
