19
Iteration:  1497charge 0 multiplicity 1
 C        -0.021701         0.059016         0.057879
 C         1.458465         0.077786         0.063197
 C         2.303530        -1.278435         0.196359
 C         3.236670        -0.081054         0.001362
 C         4.648306         0.516008        -0.248239
 C         4.246622         1.988261        -0.100948
 O         2.967261         2.063309         0.743469
 C         2.495787         0.779574         1.053238
 O         2.401376         0.362346        -1.102995
 H        -0.257545        -0.313800         1.101214
 H        -0.515990         1.075539        -0.066888
 H        -0.433964        -0.734466        -0.582940
 H         2.408678        -1.734747         1.212287
 H         2.180287        -2.003910        -0.557892
 H         5.447570         0.080224         0.379101
 H         4.967544         0.220415        -1.321511
 H         5.068866         2.704948         0.262252
 H         3.856900         2.600977        -1.020571
 H         2.494037         0.616375         2.109675
