19
Iteration:  3601charge 0 multiplicity 1
 C         0.079648         0.353072         0.049962
 C         1.517976        -0.016734         0.127431
 C         2.365638        -1.376242         0.322618
 C         3.242829        -0.119262        -0.094316
 C         4.581052         0.448797        -0.143040
 C         4.050842         2.099479        -0.179857
 O         2.918419         2.138634         0.754983
 C         2.644394         0.792280         1.034106
 O         2.382354         0.151584        -1.190576
 H        -0.370197        -0.143203         0.865661
 H        -0.270289         1.411433         0.056664
 H        -0.419952        -0.112891        -0.837654
 H         2.317193        -1.793059         1.266798
 H         2.158609        -2.127872        -0.448695
 H         5.181063         0.108905         0.768641
 H         5.276628         0.301888        -1.056846
 H         4.811058         2.894775         0.070337
 H         3.579772         2.234858        -1.188074
 H         2.662963         0.453831         2.104558
