19
Iteration:  2908charge 0 multiplicity 1
 C         0.007771         0.194332         0.045821
 C         1.488793        -0.018376         0.160003
 C         2.305811        -1.365017         0.307609
 C         3.310209        -0.081874        -0.049847
 C         4.597604         0.538486        -0.309102
 C         4.189966         2.053683         0.011201
 O         2.957255         2.042395         0.589269
 C         2.561161         0.728425         0.974274
 O         2.285993         0.338062        -1.070555
 H        -0.535373        -0.273001         0.829923
 H        -0.139216         1.276178        -0.040460
 H        -0.435461        -0.284826        -0.891800
 H         2.487259        -1.840250         1.333997
 H         2.301957        -2.029857        -0.525775
 H         5.380748         0.331401         0.533331
 H         4.951440         0.362590        -1.392527
 H         4.910750         2.331332         0.817074
 H         4.240876         2.894367        -0.670249
 H         2.927966         0.598062         2.058440
