19
Iteration:   921charge 0 multiplicity 1
 C        -0.029888         0.176473         0.094066
 C         1.470012        -0.050218        -0.000397
 C         2.391108        -1.318281         0.301354
 C         3.271782        -0.031647        -0.038118
 C         4.606689         0.466015        -0.154156
 C         4.290260         1.978320        -0.103807
 O         2.971851         2.099449         0.762636
 C         2.404165         0.811010         0.908981
 O         2.348435         0.335566        -1.148837
 H        -0.233619        -0.335586         1.043491
 H        -0.138981         1.260102         0.187528
 H        -0.668239        -0.225381        -0.731408
 H         2.597795        -1.861285         1.305298
 H         2.242155        -2.089353        -0.549988
 H         5.248039         0.189868         0.658691
 H         5.085107         0.319365        -1.181230
 H         5.107982         2.505927         0.463760
 H         3.968011         2.542751        -1.030119
 H         2.341310         0.407901         1.949997
