19
Iteration:   479
 C        -0.104462        -0.050978         0.157680
 C         1.423074         0.110525         0.076090
 C         2.269677        -1.287797         0.152661
 C         3.200308        -0.101298        -0.092109
 C         4.704299         0.497346        -0.099308
 C         4.321827         1.973191         0.002744
 O         3.025968         2.156619         0.781858
 C         2.564633         0.805800         0.968550
 O         2.320554         0.384579        -1.287706
 H        -0.308196        -0.625495         1.070972
 H        -0.695417         0.848245         0.031848
 H        -0.537636        -0.621160        -0.700477
 H         2.174237        -1.668860         1.140833
 H         2.300257        -1.951663        -0.766640
 H         5.170199         0.187858         0.830508
 H         5.324012         0.574921        -0.976160
 H         5.142271         2.385757         0.514431
 H         4.244045         2.273186        -1.068469
 H         2.614481         0.637482         2.051032
