19
Iteration:  2355charge 0 multiplicity 1
 C         0.013154         0.134210        -0.059156
 C         1.447987        -0.026604         0.136446
 C         2.340616        -1.298187         0.310654
 C         3.282688        -0.104468         0.006538
 C         4.624847         0.475020        -0.298262
 C         4.196943         2.050613        -0.169391
 O         3.088981         2.086375         0.785053
 C         2.615084         0.807606         0.998105
 O         2.166775         0.343344        -1.024551
 H        -0.417098        -0.465825         0.739004
 H        -0.537186         1.047294        -0.021363
 H        -0.087543        -0.351956        -1.094990
 H         2.371448        -1.661824         1.277425
 H         2.378418        -2.003315        -0.554749
 H         5.271978         0.366552         0.587280
 H         5.155171         0.077365        -1.174634
 H         4.692217         2.988097         0.123461
 H         3.708454         2.217066        -1.197786
 H         2.641549         0.507243         2.092602
