19
Iteration:   534charge 0 multiplicity 1
 C         0.023869         0.294473        -0.062753
 C         1.477756        -0.021364         0.074753
 C         2.461226        -1.316384         0.314858
 C         3.294065        -0.069483         0.017729
 C         4.554303         0.469907        -0.369157
 C         4.228689         2.053567         0.029200
 O         2.862417         2.027974         0.783457
 C         2.551319         0.689596         1.015358
 O         2.306128         0.285154        -1.104910
 H        -0.638565        -0.090914         0.724566
 H        -0.017980         1.387532         0.076318
 H        -0.300309         0.045344        -1.087254
 H         2.512592        -1.789581         1.315033
 H         2.302777        -1.952789        -0.587365
 H         5.450922         0.100508         0.104664
 H         4.740541         0.449314        -1.460092
 H         4.948264         2.546233         0.655214
 H         4.034343         2.672787        -0.879224
 H         2.696124         0.462729         2.082606
