19
Iteration:  3520charge 0 multiplicity 1
 C        -0.104969        -0.071727         0.023575
 C         1.415090         0.113673         0.013833
 C         2.297518        -1.186046         0.420065
 C         3.206422        -0.069835        -0.108418
 C         4.625379         0.512591        -0.259848
 C         4.402003         2.069633         0.056730
 O         3.116722         2.075401         0.697526
 C         2.540941         0.888684         0.956968
 O         2.205716         0.236178        -1.188724
 H        -0.369048        -0.295361         1.122198
 H        -0.688368         0.759211        -0.345543
 H        -0.314702        -0.978930        -0.550860
 H         2.448409        -1.400356         1.496089
 H         2.215128        -2.081874        -0.148595
 H         5.359400         0.016161         0.564456
 H         5.009215         0.451518        -1.275300
 H         5.189616         2.492796         0.657878
 H         4.310055         2.606000        -0.883224
 H         2.614776         0.419758         2.013749
