19
Iteration:  4692charge 0 multiplicity 1
 C        -0.009851         0.136540        -0.083805
 C         1.443123        -0.067635         0.114960
 C         2.348738        -1.311433         0.315437
 C         3.259225        -0.071031         0.088955
 C         4.684962         0.517671        -0.181930
 C         4.187096         2.040582        -0.226622
 O         3.061280         2.159645         0.728836
 C         2.452459         0.805303         0.968271
 O         2.280944         0.219762        -1.009826
 H        -0.669170        -0.312820         0.707427
 H        -0.206142         1.269147        -0.171880
 H        -0.321476        -0.353671        -1.067429
 H         2.554203        -1.880491         1.270990
 H         2.394238        -1.836376        -0.605030
 H         5.432641         0.478760         0.583098
 H         5.332321         0.259541        -1.041861
 H         5.040857         2.683454         0.003420
 H         3.671965         2.332123        -1.170570
 H         2.429194         0.738974         2.088608
