19
Iteration:  1430charge 0 multiplicity 1
 C         0.047886         0.096361         0.027538
 C         1.478375        -0.017603         0.186322
 C         2.263093        -1.349545         0.306198
 C         3.270605        -0.070823        -0.133238
 C         4.618654         0.521448        -0.333825
 C         4.256337         2.031897         0.114862
 O         2.963032         2.145377         0.690722
 C         2.610381         0.831498         0.950797
 O         2.232413         0.289863        -1.163275
 H        -0.529616        -0.431111         0.821040
 H        -0.419297         1.086644         0.115038
 H        -0.287981        -0.379541        -0.898553
 H         2.380876        -1.624952         1.342869
 H         2.058830        -2.223727        -0.314224
 H         5.314051         0.089189         0.423249
 H         5.214334         0.346292        -1.257723
 H         5.061357         2.507090         0.789731
 H         4.383786         2.636720        -0.841416
 H         2.672271         0.566379         1.987221
