19
Iteration:  4897
 C        -0.099718        -0.031555        -0.177532
 C         1.479472         0.091134         0.151070
 C         2.273918        -1.281899         0.363160
 C         3.271613        -0.117418         0.108911
 C         4.586863         0.510665        -0.359565
 C         4.309973         2.028369        -0.103877
 O         2.993047         2.158025         0.675102
 C         2.608872         0.879678         1.061077
 O         2.323479         0.232972        -0.983209
 H        -0.595766        -0.214866         0.731563
 H        -0.480284         0.909928        -0.566062
 H        -0.205217        -0.799693        -0.879740
 H         2.181281        -1.824767         1.325182
 H         2.243413        -1.842778        -0.537315
 H         5.374013         0.157134         0.344800
 H         4.886217         0.468749        -1.443680
 H         5.036385         2.614857         0.504809
 H         4.120041         2.529144        -1.167531
 H         2.729011         0.851659         2.143472
