19
Iteration:  2826
 C        -0.061840         0.038009        -0.027023
 C         1.474620         0.023337         0.151510
 C         2.332082        -1.289573         0.246924
 C         3.360819        -0.094296        -0.040732
 C         4.655261         0.506068        -0.235156
 C         4.164375         1.994631        -0.116296
 O         3.034639         2.115711         0.786661
 C         2.610157         0.765984         1.018947
 O         2.216024         0.419738        -1.079642
 H        -0.804505         0.193312         0.810787
 H        -0.254803         1.011311        -0.574598
 H        -0.384180        -0.741204        -0.704301
 H         2.435955        -1.877312         1.205203
 H         2.349877        -2.126562        -0.531554
 H         5.239660         0.141819         0.594526
 H         5.244137         0.324165        -1.127395
 H         4.997606         2.715005         0.196656
 H         3.671498         2.008916        -1.141037
 H         2.594310         0.513432         2.024165
