19
Iteration:   835
 C        -0.031538         0.184658        -0.100361
 C         1.488812         0.004694         0.075355
 C         2.375763        -1.380284         0.236887
 C         3.295024        -0.076280         0.083131
 C         4.663300         0.448966        -0.331184
 C         4.219147         2.012150        -0.122882
 O         3.020908         2.096282         0.876147
 C         2.446674         0.804528         1.055726
 O         2.309690         0.355326        -1.048699
 H        -0.704161        -0.046234         0.751068
 H        -0.418844         1.190198        -0.369083
 H        -0.288615        -0.549475        -0.925301
 H         2.341138        -1.824941         1.288216
 H         2.340350        -2.102951        -0.642459
 H         5.475929         0.161429         0.301718
 H         4.832617         0.390230        -1.457984
 H         4.980620         2.744784         0.092826
 H         3.825964         2.313815        -1.093300
 H         2.368643         0.570148         2.104649
