19
Iteration:  4668
 C        -0.065458         0.187593         0.028987
 C         1.506389         0.011394         0.143137
 C         2.400443        -1.339693         0.316873
 C         3.282613        -0.110435        -0.015464
 C         4.643225         0.487161        -0.047149
 C         4.211025         2.007644        -0.121905
 O         2.861585         2.069418         0.513492
 C         2.599960         0.768719         0.986185
 O         2.303520         0.341086        -1.103464
 H        -0.608274        -0.277591         0.903218
 H        -0.317829         1.337693        -0.042427
 H        -0.434857        -0.346179        -0.897426
 H         2.557382        -1.694376         1.352157
 H         2.457613        -2.052719        -0.533036
 H         5.232689         0.235084         0.815225
 H         5.374985         0.420197        -0.833281
 H         4.891275         2.703405         0.328010
 H         3.982579         2.280374        -1.175871
 H         2.803011         0.727337         2.064805
