19
Iteration:  3115
 C         0.072399         0.317705        -0.027242
 C         1.492832        -0.076566         0.197677
 C         2.433914        -1.365511         0.282008
 C         3.228374        -0.075762        -0.091612
 C         4.653543         0.526174        -0.224949
 C         4.135178         2.021828        -0.169201
 O         2.921516         2.077937         0.720603
 C         2.563250         0.721950         1.043238
 O         2.256104         0.264559        -1.053154
 H        -0.492245         0.070481         0.835748
 H         0.045049         1.445890        -0.017047
 H        -0.340076        -0.201327        -0.965698
 H         2.647997        -1.934466         1.229320
 H         2.129235        -2.038873        -0.590599
 H         5.183209         0.339285         0.664453
 H         5.221017         0.345967        -1.187661
 H         4.842382         2.787600         0.265721
 H         3.989941         2.381627        -1.231262
 H         2.497990         0.532152         2.237627
