19
Iteration:  1923charge 0 multiplicity 1
 C        -0.000300         0.185758         0.130000
 C         1.473442        -0.055636         0.159269
 C         2.356602        -1.394149         0.250399
 C         3.294604        -0.118793        -0.084694
 C         4.625646         0.624208        -0.312297
 C         4.328666         2.032308         0.177804
 O         2.898885         2.103912         0.559458
 C         2.613538         0.756777         0.950714
 O         2.172534         0.304028        -1.142860
 H        -0.425375         0.235272         1.128203
 H        -0.206163         1.110047        -0.435076
 H        -0.597310        -0.666720        -0.401375
 H         2.498949        -1.936878         1.237185
 H         2.189541        -2.061282        -0.684812
 H         5.475143         0.154372         0.264727
 H         5.038286         0.499812        -1.313170
 H         4.996610         2.282180         0.943002
 H         4.272361         2.772371        -0.606411
 H         2.825183         0.769185         1.976796
