19
Iteration:  2160
 C        -0.094891        -0.058151        -0.002821
 C         1.430869         0.066692         0.232361
 C         2.424109        -1.242549         0.313041
 C         3.253634        -0.133061        -0.087119
 C         4.654247         0.409201        -0.345187
 C         4.322904         2.027910         0.107549
 O         2.925339         2.140392         0.586906
 C         2.598189         0.889242         0.930380
 O         2.233629         0.373145        -1.049140
 H        -0.473748        -0.466998         0.917162
 H        -0.322764         0.985674        -0.084918
 H        -0.492632        -0.625080        -0.937896
 H         2.503282        -1.657904         1.369126
 H         1.998114        -2.033343        -0.465740
 H         5.644536         0.073163        -0.007713
 H         4.789683         0.266873        -1.437931
 H         5.047387         2.316078         0.969986
 H         4.499488         2.696977        -0.645781
 H         2.713179         0.775030         1.975011
