19
Iteration:   919
 C        -0.024428         0.188560         0.099799
 C         1.488466        -0.052605         0.013859
 C         2.388069        -1.324856         0.311872
 C         3.252177        -0.036270        -0.049618
 C         4.588945         0.475911        -0.162129
 C         4.305370         2.003928        -0.113574
 O         2.970215         2.090270         0.774793
 C         2.397391         0.789028         0.895285
 O         2.350581         0.326865        -1.152518
 H        -0.313172        -0.321669         1.006005
 H        -0.150842         1.265035         0.181943
 H        -0.641671        -0.169763        -0.718527
 H         2.570332        -1.793417         1.237288
 H         2.343884        -2.064221        -0.554316
 H         5.252707         0.261589         0.687982
 H         5.125500         0.247027        -1.079949
 H         5.125929         2.506525         0.466950
 H         3.993496         2.528232        -1.064510
 H         2.332257         0.395500         1.966699
