19
Iteration:   132charge 0 multiplicity 1
 C        -0.071040         0.034530        -0.073332
 C         1.421984        -0.089356         0.013706
 C         2.370983        -1.239089         0.393825
 C         3.233204        -0.049112         0.016696
 C         4.562471         0.520471        -0.332073
 C         4.321553         1.989815        -0.136946
 O         3.129397         2.082111         0.913299
 C         2.472428         0.862802         1.043908
 O         2.291803         0.334115        -1.162826
 H        -0.669563        -0.474519         0.656246
 H        -0.249642         1.068974        -0.022781
 H        -0.329334        -0.186238        -1.095091
 H         2.321169        -1.508611         1.434475
 H         2.385290        -2.007882        -0.331280
 H         5.366057         0.141493         0.221929
 H         4.923643         0.499691        -1.317890
 H         5.128215         2.628320         0.253195
 H         3.723360         2.372010        -0.983651
 H         2.451288         0.498508         2.110150
