19
Iteration:  2730
 C        -0.023164         0.153938         0.116785
 C         1.434758        -0.019250         0.112478
 C         2.475702        -1.281165         0.338533
 C         3.209960         0.003582        -0.092657
 C         4.674065         0.509846        -0.193417
 C         4.366385         2.011437         0.126682
 O         2.898164         2.111619         0.598344
 C         2.509553         0.772641         0.859395
 O         2.205684         0.233170        -1.177239
 H        -0.606357        -0.364531         0.933330
 H        -0.326417         1.206491         0.138211
 H        -0.344346        -0.248125        -0.799257
 H         2.634536        -1.868788         1.262849
 H         2.439862        -2.024028        -0.560325
 H         5.459876        -0.004582         0.433914
 H         5.049151         0.501672        -1.201932
 H         4.935653         2.573661         0.755226
 H         4.117489         2.499671        -0.863477
 H         2.728537         0.452767         1.979471
