19
Iteration:  4637
 C         0.021534         0.149904         0.179202
 C         1.499658        -0.036286        -0.000191
 C         2.316971        -1.338852         0.370142
 C         3.269185        -0.151679        -0.001728
 C         4.681591         0.505426        -0.136205
 C         4.276277         2.047667         0.065482
 O         2.840533         2.156814         0.541584
 C         2.515362         0.863911         0.879967
 O         2.345736         0.218062        -1.256732
 H        -0.310326        -0.055190         1.217107
 H        -0.261797         1.253847         0.011141
 H        -0.671541        -0.447206        -0.469433
 H         2.309387        -1.629944         1.454450
 H         2.326734        -2.130149        -0.354861
 H         5.317918         0.205975         0.649883
 H         5.106432         0.579077        -1.126236
 H         5.033175         2.478571         0.708527
 H         4.283208         2.582520        -0.921326
 H         2.441073         0.731082         2.012556
