19
Iteration:   692
 C         0.019809         0.263307        -0.045036
 C         1.427364        -0.104952        -0.002205
 C         2.394821        -1.374949         0.350072
 C         3.280117        -0.027872        -0.052960
 C         4.593503         0.551722        -0.337310
 C         4.288130         2.020386         0.087636
 O         3.023711         2.164421         0.809083
 C         2.423442         0.761917         0.931550
 O         2.233829         0.203792        -1.096376
 H        -0.559462        -0.366794         0.687416
 H        -0.211520         1.355011         0.208185
 H        -0.171873        -0.099836        -1.102318
 H         2.497297        -1.877369         1.322151
 H         2.400576        -2.172601        -0.482462
 H         5.370869         0.047551         0.302378
 H         4.795061         0.494666        -1.521920
 H         5.104227         2.372477         0.725893
 H         4.328294         2.716023        -0.746007
 H         2.717287         0.615761         2.060423
