19
Iteration:  4154
 C        -0.004094         0.297667         0.118630
 C         1.527073         0.013043        -0.019603
 C         2.438768        -1.384577         0.316998
 C         3.303649        -0.158142         0.023876
 C         4.597532         0.559439        -0.184126
 C         4.098928         2.055876        -0.123334
 O         2.927189         2.087129         0.764545
 C         2.513734         0.765397         0.970685
 O         2.356511         0.255928        -1.249450
 H        -0.244371        -0.165000         1.089887
 H        -0.208301         1.331390         0.139967
 H        -0.555475        -0.209105        -0.642172
 H         2.477285        -1.690983         1.416344
 H         2.274234        -2.178341        -0.388610
 H         5.285390         0.317578         0.807179
 H         5.116751         0.165290        -1.052780
 H         4.878372         2.567923         0.400125
 H         3.866906         2.216895        -1.187938
 H         2.387948         0.423808         1.966344
