19
Iteration:  3870charge 0 multiplicity 1
 C        -0.079334        -0.029911        -0.004232
 C         1.393738         0.024128         0.082865
 C         2.364760        -1.288213         0.237058
 C         3.279681        -0.074834        -0.032127
 C         4.654968         0.471792        -0.157503
 C         4.302341         2.013196        -0.130072
 O         3.083682         2.151665         0.746374
 C         2.516517         0.826809         1.014598
 O         2.240903         0.387734        -1.097867
 H        -0.569508        -0.167268         0.963848
 H        -0.532558         0.907212        -0.469378
 H        -0.258067        -0.965150        -0.642498
 H         2.440557        -1.838196         1.205497
 H         2.088921        -1.899229        -0.663085
 H         5.128597         0.133528         0.786821
 H         5.288621         0.186266        -0.921983
 H         4.987010         2.820583         0.330519
 H         4.010914         2.250420        -1.175050
 H         2.556717         0.686215         2.118628
