19
Iteration:   526charge 0 multiplicity 1
 C         0.044884         0.302651        -0.052078
 C         1.527916        -0.047969         0.053458
 C         2.452668        -1.364964         0.232074
 C         3.287767        -0.103685         0.042317
 C         4.630494         0.526109        -0.321615
 C         4.260988         2.003699         0.043348
 O         2.856710         2.074293         0.745135
 C         2.537416         0.733090         1.063074
 O         2.202334         0.347618        -1.124776
 H        -0.440084        -0.398665         0.656628
 H        -0.326990         1.349228         0.022311
 H        -0.368941        -0.029433        -1.008193
 H         2.716661        -1.540490         1.306721
 H         2.241136        -2.216349        -0.325963
 H         5.456344        -0.006795         0.265746
 H         4.559600         0.258138        -1.323544
 H         5.049590         2.467243         0.593379
 H         4.066650         2.422419        -0.916758
 H         2.714686         0.411346         2.114109
