19
Iteration:   863charge 0 multiplicity 1
 C         0.023896         0.282673        -0.082323
 C         1.545502        -0.038399         0.108956
 C         2.319388        -1.324358         0.261458
 C         3.295039        -0.110470         0.038539
 C         4.594220         0.494214        -0.298583
 C         4.075788         2.055809        -0.132042
 O         2.975043         2.012710         0.774647
 C         2.554851         0.709544         1.099734
 O         2.370894         0.325959        -1.078443
 H        -0.715495        -0.118446         0.610298
 H        -0.172391         1.357361        -0.095202
 H        -0.261373        -0.104244        -1.044514
 H         2.338859        -1.587083         1.279957
 H         2.207692        -2.137477        -0.459173
 H         5.382740         0.367952         0.497653
 H         5.007685         0.357138        -1.257423
 H         4.936532         2.630183         0.316923
 H         3.768512         2.540617        -1.108942
 H         2.595335         0.492691         2.213562
