19
Iteration:  1550charge 0 multiplicity 1
 C         0.050231         0.329759         0.005659
 C         1.473240        -0.033573         0.116110
 C         2.579917        -1.392221         0.251162
 C         3.280294        -0.097016        -0.091841
 C         4.547533         0.534875        -0.253835
 C         4.076630         1.974973        -0.063082
 O         3.009351         2.111525         0.842504
 C         2.507431         0.754648         0.946407
 O         2.225902         0.259452        -1.103553
 H        -0.480129         0.404840         0.993856
 H        -0.124508         1.375097        -0.370183
 H        -0.568214        -0.355156        -0.583388
 H         2.735141        -1.885497         1.266211
 H         2.469091        -2.020877        -0.621996
 H         5.182708        -0.023738         0.559603
 H         5.264714         0.345334        -1.174350
 H         4.971783         2.579467         0.254785
 H         3.621823         2.273757        -1.070988
 H         2.502436         0.563633         2.035827
