19
Iteration:   853charge 0 multiplicity 1
 C         0.029393         0.210368        -0.154220
 C         1.449617        -0.017212         0.039291
 C         2.365999        -1.283428         0.321594
 C         3.286957        -0.141645         0.058956
 C         4.493640         0.536923        -0.287414
 C         4.063464         1.981088        -0.137810
 O         3.029156         2.041473         0.793877
 C         2.583593         0.726961         1.065231
 O         2.399827         0.365741        -1.022343
 H        -0.392407        -0.086881         0.804819
 H        -0.011966         1.305310        -0.077952
 H        -0.554579        -0.119487        -0.981540
 H         2.502398        -1.929013         1.179045
 H         2.403380        -1.893780        -0.646962
 H         5.353276         0.344257         0.405626
 H         4.580427         0.177202        -1.253673
 H         4.973714         2.480951         0.332914
 H         3.914322         2.532954        -1.114726
 H         2.622135         0.565925         2.183608
