19
Iteration:  1477charge 0 multiplicity 1
 C         0.023463         0.010564         0.067928
 C         1.478585        -0.054822         0.036130
 C         2.421012        -1.266184         0.289802
 C         3.220448        -0.067126        -0.001365
 C         4.568946         0.439586        -0.268066
 C         4.224297         1.955446        -0.025712
 O         3.059190         2.179569         0.775369
 C         2.482660         0.831269         0.936048
 O         2.236536         0.402083        -1.134744
 H        -0.645592        -0.355648         0.866201
 H        -0.330063         1.067417         0.012306
 H        -0.419591        -0.487873        -0.824683
 H         2.330882        -1.834315         1.234072
 H         2.489755        -1.840068        -0.572036
 H         5.335015         0.128610         0.353493
 H         5.055119         0.235730        -1.242621
 H         5.086951         2.462269         0.533918
 H         4.340257         2.558560        -1.021082
 H         2.514550         0.631915         2.030783
