19
Iteration:  2758charge 0 multiplicity 1
 C         0.045178         0.224935         0.107338
 C         1.474327        -0.038310         0.043607
 C         2.373924        -1.324827         0.418750
 C         3.259649        -0.114086        -0.167476
 C         4.598873         0.616413        -0.329738
 C         4.246769         2.089046         0.104901
 O         2.940265         2.087082         0.665476
 C         2.575187         0.713085         0.919317
 O         2.234913         0.159440        -1.166695
 H        -0.565226        -0.075865         0.914749
 H        -0.114521         1.335074         0.083874
 H        -0.302586        -0.143980        -0.945899
 H         2.333376        -1.713368         1.472707
 H         2.244159        -1.975081        -0.394390
 H         5.024631         0.244899         0.617839
 H         5.498076         0.648806        -1.021139
 H         5.017012         2.552956         0.925406
 H         4.003094         2.759100        -0.677156
 H         2.691792         0.470058         1.907871
