19
Iteration:  4888
 C        -0.002504         0.005943        -0.198949
 C         1.423448         0.016971         0.240848
 C         2.296881        -1.207181         0.404061
 C         3.245490        -0.076009         0.075396
 C         4.610862         0.491573        -0.308824
 C         4.223805         2.068072        -0.053746
 O         3.013446         2.117575         0.618033
 C         2.654967         0.866579         1.035582
 O         2.270667         0.238000        -1.023592
 H        -0.611653        -0.309060         0.708589
 H        -0.403189         0.964992        -0.588448
 H        -0.161716        -0.769534        -1.034535
 H         2.378194        -1.933918         1.242651
 H         2.027790        -1.818307        -0.490160
 H         5.547385         0.294132         0.171602
 H         4.685962         0.170117        -1.365671
 H         5.132286         2.371764         0.442622
 H         4.365672         2.713266        -1.044915
 H         2.581254         0.691792         2.159852
