19
Iteration:     6
 C         0.025697         0.189167         0.040239
 C         1.456362        -0.016137         0.079644
 C         2.292030        -1.325579         0.284210
 C         3.282037        -0.134657        -0.065155
 C         4.617668         0.550803        -0.222899
 C         4.206868         2.016284        -0.090138
 O         3.023793         2.076474         0.721358
 C         2.504743         0.773128         1.021665
 O         2.318091         0.330561        -1.126257
 H        -0.412492        -0.142027         1.006389
 H        -0.341389         1.192621        -0.249204
 H        -0.399149        -0.531495        -0.707831
 H         2.477283        -1.762489         1.298352
 H         2.200135        -2.150027        -0.447771
 H         5.230154         0.182513         0.673858
 H         5.116607         0.403204        -1.197593
 H         4.837674         2.705493         0.520399
 H         3.979160         2.596581        -1.011169
 H         2.741823         0.409816         2.054987
