19
Iteration:   745
 C        -0.006435         0.139734         0.061191
 C         1.506267        -0.004677         0.034573
 C         2.303862        -1.361109         0.252561
 C         3.336263        -0.206369        -0.069490
 C         4.608543         0.503759        -0.273226
 C         4.279200         2.037583         0.109625
 O         2.874276         2.074743         0.633399
 C         2.541352         0.828733         0.983099
 O         2.309435         0.401909        -1.123593
 H        -0.428626        -0.029081         1.073894
 H        -0.090241         1.248617        -0.032198
 H        -0.520385        -0.465765        -0.708923
 H         2.410237        -1.700116         1.328825
 H         1.989155        -2.152462        -0.535714
 H         5.313893         0.139301         0.523059
 H         5.087695         0.281592        -1.258356
 H         4.984840         2.305041         0.919329
 H         4.354733         2.775100        -0.687747
 H         2.650912         0.771498         2.067234
