19
Iteration:  3124
 C         0.067679         0.261472        -0.025687
 C         1.476034        -0.045570         0.214367
 C         2.385474        -1.345317         0.280497
 C         3.257717        -0.098005        -0.033105
 C         4.638483         0.597997        -0.205027
 C         4.242509         2.012134        -0.185358
 O         2.880819         2.051591         0.700323
 C         2.580278         0.713376         1.066547
 O         2.220188         0.302228        -1.090476
 H        -0.504003        -0.022528         0.786117
 H         0.091686         1.330657        -0.237296
 H        -0.427899        -0.130802        -0.943396
 H         2.597742        -1.804948         1.209536
 H         2.259336        -2.044119        -0.529669
 H         5.270901         0.344837         0.555805
 H         5.120297         0.294914        -1.143263
 H         4.994769         2.656063         0.298151
 H         3.887092         2.292919        -1.244604
 H         2.832246         0.318589         2.184387
