19
Iteration:   460
 C         0.006603        -0.044255         0.105665
 C         1.427046         0.055983        -0.053046
 C         2.293915        -1.200664         0.178901
 C         3.303006        -0.042433        -0.052426
 C         4.637791         0.424253        -0.098682
 C         4.312822         2.003467        -0.014414
 O         3.105155         2.081225         0.825576
 C         2.435042         0.798730         0.855633
 O         2.229038         0.410447        -1.177289
 H         0.091213        -0.257950         1.208038
 H        -0.531609         0.924650        -0.074149
 H        -0.528064        -0.824539        -0.480833
 H         2.357931        -1.590042         1.243975
 H         2.327262        -1.920333        -0.634946
 H         5.311922         0.180198         0.845699
 H         5.017494         0.060581        -1.050397
 H         4.885716         2.728569         0.593561
 H         4.010662         2.399058        -0.991765
 H         2.242124         0.550784         1.937644
