19
Iteration:  2067
 C         0.045998         0.219823         0.034290
 C         1.531674        -0.047789         0.147729
 C         2.295179        -1.436212         0.248357
 C         3.290909        -0.130662        -0.059363
 C         4.638042         0.579566        -0.226122
 C         4.073120         2.057432        -0.194319
 O         2.968691         2.087649         0.781492
 C         2.571539         0.737002         1.023781
 O         2.330469         0.355019        -1.072926
 H        -0.348444         0.231142         1.106121
 H        -0.094198         1.265194        -0.412673
 H        -0.497032        -0.434039        -0.655372
 H         2.158959        -2.013358         1.232258
 H         2.178390        -2.060877        -0.619958
 H         5.419403         0.385780         0.560362
 H         5.280371         0.389760        -1.124211
 H         4.845759         2.676213         0.138494
 H         3.645491         2.446756        -1.217212
 H         2.791739         0.331989         2.003955
