19
Iteration:   537charge 0 multiplicity 1
 C         0.017064         0.292075        -0.063369
 C         1.468290        -0.017586         0.091982
 C         2.448940        -1.305765         0.326120
 C         3.289183        -0.082480        -0.006017
 C         4.546285         0.480206        -0.389179
 C         4.206634         2.057347         0.022356
 O         2.879155         2.022440         0.788325
 C         2.550591         0.693597         1.002169
 O         2.333196         0.270347        -1.092853
 H        -0.674103        -0.041459         0.717692
 H         0.071298         1.397479         0.069450
 H        -0.292526         0.048104        -1.076020
 H         2.438823        -1.886730         1.276753
 H         2.392648        -1.869667        -0.549688
 H         5.487018         0.119548         0.117391
 H         4.794429         0.498208        -1.396033
 H         4.903650         2.542689         0.680151
 H         4.048211         2.714430        -0.813489
 H         2.629400         0.427874         2.077719
