19
Iteration:  2859charge 0 multiplicity 1
 C        -0.038702         0.010216         0.035902
 C         1.452166         0.045736         0.077015
 C         2.305244        -1.263428         0.279438
 C         3.289623        -0.073224        -0.045320
 C         4.549282         0.606665        -0.213762
 C         4.238914         2.031386        -0.134798
 O         3.156908         2.064759         0.868980
 C         2.549817         0.750274         0.975981
 O         2.259230         0.299323        -1.198091
 H        -0.571165        -0.151246         1.047592
 H        -0.298465         1.036400        -0.346990
 H        -0.402443        -0.693739        -0.686392
 H         2.403552        -1.523145         1.351721
 H         2.247372        -2.069668        -0.511668
 H         4.945760         0.220887         0.693042
 H         5.108024         0.213842        -1.013080
 H         5.034271         2.771586         0.131413
 H         3.850316         2.544202        -1.043405
 H         2.399408         0.586070         1.986363
