19
Iteration:  1412charge 0 multiplicity 1
 C         0.022790         0.148235         0.098130
 C         1.438076         0.008428         0.006777
 C         2.409281        -1.264229         0.306018
 C         3.296123        -0.120460        -0.009069
 C         4.593525         0.523144        -0.291324
 C         4.358410         1.993471         0.018861
 O         2.861874         2.077269         0.666790
 C         2.450207         0.782903         0.967894
 O         2.314237         0.309289        -1.098432
 H        -0.350455        -0.180631         1.097316
 H        -0.195563         1.265604         0.123917
 H        -0.496294        -0.324836        -0.765024
 H         2.437932        -1.790782         1.316798
 H         2.359440        -1.887907        -0.572448
 H         5.447960         0.047423         0.088188
 H         4.709281         0.414249        -1.419998
 H         5.184626         2.370043         0.658462
 H         4.343707         2.795956        -0.790348
 H         2.439837         0.299839         2.035574
