19
Iteration:    44
 C        -0.044416         0.270060         0.225627
 C         1.484840         0.050928         0.031361
 C         2.411690        -1.238316         0.185503
 C         3.309270        -0.129582        -0.060330
 C         4.765360         0.501519        -0.066638
 C         4.123126         2.004161        -0.017228
 O         2.920627         2.047889         0.693453
 C         2.465936         0.762303         0.914349
 O         2.287590         0.222771        -1.250257
 H        -0.175009         0.239201         1.283428
 H        -0.456305         1.180189        -0.151623
 H        -0.518565        -0.579867        -0.201854
 H         2.511491        -1.747600         1.127561
 H         2.349671        -1.877899        -0.677382
 H         5.345579         0.190948         0.711110
 H         5.377006         0.370159        -0.948991
 H         4.877901         2.657828         0.378507
 H         4.043696         2.156534        -1.095428
 H         2.642220         0.476765         1.959242
