19
Iteration:  4049charge 0 multiplicity 1
 C         0.010325        -0.051036         0.053478
 C         1.421472         0.089184         0.067916
 C         2.319792        -1.236586         0.270399
 C         3.238796        -0.079944        -0.190845
 C         4.626464         0.487137        -0.164911
 C         4.281784         2.011923        -0.042181
 O         3.117605         2.170262         0.856019
 C         2.493038         0.893458         0.968721
 O         2.219401         0.209533        -1.231690
 H        -0.304818        -0.170844         1.153301
 H        -0.492942         0.842906        -0.426902
 H        -0.304253        -0.943075        -0.513189
 H         2.348947        -1.611205         1.322676
 H         2.109619        -2.013910        -0.513524
 H         4.992702         0.134717         0.715852
 H         5.512038         0.478551        -0.841215
 H         5.113851         2.678917         0.456317
 H         4.062412         2.641715        -0.929646
 H         2.395017         0.570423         2.065530
