19
Iteration:   558
 C         0.041207         0.336053        -0.066940
 C         1.472626        -0.040394         0.120106
 C         2.230182        -1.459993         0.277387
 C         3.362924        -0.159807        -0.044841
 C         4.631952         0.686037        -0.367343
 C         4.188249         2.094059        -0.004478
 O         2.953308         2.049847         0.846235
 C         2.542010         0.678497         1.004495
 O         2.332055         0.198205        -1.112815
 H        -0.524930         0.098855         0.849533
 H        -0.138960         1.422805        -0.217973
 H        -0.297087        -0.285156        -0.894752
 H         2.373516        -1.706608         1.349726
 H         1.854878        -2.136496        -0.433485
 H         5.580661         0.444990         0.221256
 H         4.975479         0.655516        -1.349460
 H         4.936492         2.629113         0.525300
 H         3.944437         2.701502        -0.864868
 H         2.624606         0.632768         2.098879
