19
Iteration:  3070
 C         0.063285         0.181475         0.071011
 C         1.486087        -0.013449         0.035288
 C         2.196338        -1.281588         0.326321
 C         3.297272        -0.111326        -0.041173
 C         4.690202         0.566161        -0.299833
 C         4.053477         2.085359        -0.124514
 O         3.038985         2.026640         0.811729
 C         2.534154         0.764645         0.958813
 O         2.393692         0.254636        -1.101945
 H        -0.300430        -0.163941         1.015492
 H        -0.180374         1.256277        -0.014525
 H        -0.484782        -0.381473        -0.755014
 H         2.056424        -1.612889         1.376396
 H         2.177942        -2.099730        -0.372242
 H         5.224189         0.354631         0.538435
 H         5.140413         0.373486        -1.273696
 H         4.879781         2.750543         0.134848
 H         3.791470         2.315052        -1.178872
 H         2.453663         0.460851         2.098845
