19
Iteration:  2449
 C        -0.035881         0.143501         0.128726
 C         1.458376        -0.033815         0.198712
 C         2.412376        -1.288723         0.336680
 C         3.264168        -0.091943        -0.167314
 C         4.607732         0.567569        -0.306635
 C         4.286218         1.976402         0.151612
 O         2.922780         2.098420         0.615644
 C         2.587941         0.817218         0.876019
 O         2.238059         0.257815        -1.195808
 H        -0.451941         0.361844         1.170670
 H        -0.334807         1.073334        -0.407395
 H        -0.505516        -0.673787        -0.353259
 H         2.489558        -1.662694         1.401488
 H         2.245578        -2.095734        -0.494788
 H         5.200831         0.002967         0.455557
 H         5.252835         0.698983        -1.184360
 H         5.096559         2.319413         0.742831
 H         4.173519         2.575195        -0.685499
 H         2.807127         0.667769         2.048700
