19
Iteration:  3760charge 0 multiplicity 1
 C        -0.124285         0.176876         0.106100
 C         1.407883        -0.039853         0.149419
 C         2.452236        -1.291790         0.311498
 C         3.196650        -0.093789        -0.121119
 C         4.634835         0.583847        -0.217954
 C         4.423857         2.074654         0.122386
 O         2.954014         2.035812         0.506229
 C         2.534183         0.743912         0.929719
 O         2.270609         0.269147        -1.134915
 H        -0.561932        -0.302308         1.000042
 H        -0.345599         1.307697         0.062602
 H        -0.555256        -0.355736        -0.809904
 H         2.580879        -1.566221         1.384535
 H         2.321512        -2.248158        -0.358521
 H         5.314259         0.062606         0.409781
 H         4.910695         0.589631        -1.197519
 H         4.885677         2.593101         1.042777
 H         4.473472         2.686951        -0.812653
 H         2.599731         0.555203         2.001249
