19
Iteration:  3259charge 0 multiplicity 1
 C        -0.047352         0.246691         0.062692
 C         1.434113        -0.112835         0.090759
 C         2.356622        -1.305210         0.347335
 C         3.298317        -0.140682         0.079427
 C         4.666650         0.560765        -0.355738
 C         4.227073         2.057073         0.005834
 O         2.931959         2.040841         0.618985
 C         2.532116         0.751748         0.933631
 O         2.381530         0.284813        -1.119245
 H        -0.487904        -0.094252         1.054376
 H        -0.105819         1.335039        -0.087227
 H        -0.651585        -0.252234        -0.703547
 H         2.223692        -1.879994         1.365421
 H         2.170391        -2.065017        -0.421779
 H         5.560239         0.290784         0.217386
 H         4.635332         0.478092        -1.424061
 H         4.869992         2.687880         0.769534
 H         4.158568         2.864431        -0.717698
 H         2.528907         0.777145         2.014997
