19
Iteration:  1815
 C        -0.059337         0.020854         0.042745
 C         1.440619         0.020842         0.117064
 C         2.385936        -1.261556         0.258701
 C         3.257772        -0.053489        -0.138156
 C         4.715573         0.535530        -0.184404
 C         4.227639         1.962714        -0.122629
 O         3.060303         2.038898         0.724880
 C         2.566540         0.757573         1.011925
 O         2.171585         0.446351        -1.070424
 H        -0.486643        -0.413721         0.908754
 H        -0.234377         1.062702         0.104809
 H        -0.426196        -0.330892        -0.963074
 H         2.449788        -1.744062         1.270306
 H         2.149512        -2.040050        -0.545041
 H         5.149594         0.121113         0.759466
 H         5.312889         0.349421        -1.040277
 H         4.988327         2.589500         0.260922
 H         4.034036         2.372645        -1.154021
 H         2.459389         0.536596         2.139016
