19
Iteration:   500
 C        -0.074364         0.057366         0.067713
 C         1.459444        -0.022921         0.115759
 C         2.342956        -1.234565         0.216839
 C         3.254962        -0.058300        -0.074973
 C         4.656919         0.479899        -0.186515
 C         4.284995         2.081657         0.040353
 O         3.002701         2.043411         0.685324
 C         2.544686         0.755806         0.889223
 O         2.294524         0.393748        -1.086893
 H        -0.552134        -0.617054         0.776529
 H        -0.461215         1.064782         0.109380
 H        -0.509038        -0.252986        -0.915055
 H         2.505023        -1.792354         1.116916
 H         1.924277        -1.797210        -0.680162
 H         5.013387         0.083387         0.727944
 H         5.216835         0.148635        -1.075519
 H         5.089905         2.511282         0.611590
 H         4.200182         2.521560        -0.978731
 H         2.708235         0.485280         1.946417
