19
Iteration:  3277charge 0 multiplicity 1
 C         0.026011         0.282405         0.049123
 C         1.524657        -0.001187         0.044366
 C         2.326149        -1.328828         0.362926
 C         3.290054        -0.110870        -0.082047
 C         4.558997         0.555768        -0.323589
 C         4.219267         2.042104         0.023844
 O         2.882799         2.147855         0.705237
 C         2.575148         0.730104         1.004108
 O         2.330579         0.125545        -1.122682
 H        -0.393455        -0.048240         0.954824
 H        -0.280942         1.377018        -0.029393
 H        -0.504510        -0.276692        -0.768827
 H         2.442622        -1.740945         1.310262
 H         2.297874        -2.188342        -0.361343
 H         5.405131         0.397874         0.420405
 H         5.055931         0.484763        -1.381551
 H         4.984584         2.644835         0.554704
 H         4.163925         2.635068        -0.986745
 H         2.691255         0.352007         2.055876
