19
Iteration:   647charge 0 multiplicity 1
 C         0.001284         0.045086        -0.015186
 C         1.450741         0.076800         0.152467
 C         2.249801        -1.354588         0.211194
 C         3.201551        -0.072859        -0.076639
 C         4.691395         0.461924        -0.199344
 C         4.337298         2.047439        -0.056383
 O         2.964699         2.075981         0.755106
 C         2.547700         0.779416         0.956007
 O         2.313757         0.436689        -1.081703
 H        -0.387936        -0.226381         0.992491
 H        -0.567876         0.985496        -0.250820
 H        -0.170525        -0.770230        -0.743461
 H         2.211303        -1.803858         1.243461
 H         2.056803        -2.046862        -0.607663
 H         5.311307         0.091938         0.686244
 H         5.266410         0.322947        -1.124177
 H         4.992061         2.767879         0.403386
 H         4.084207         2.378892        -1.044985
 H         2.516423         0.359204         2.042105
