19
Iteration:  4215
 C        -0.011931        -0.014115        -0.116998
 C         1.440219        -0.006461         0.187479
 C         2.385889        -1.257243         0.328942
 C         3.254393        -0.020027        -0.005552
 C         4.637699         0.485721        -0.251135
 C         4.277321         1.960562        -0.094510
 O         3.016653         2.095847         0.681098
 C         2.604050         0.811932         0.996976
 O         2.184036         0.400039        -1.026096
 H        -0.675034         0.066441         0.759839
 H        -0.299455         0.890604        -0.758923
 H        -0.383855        -0.940321        -0.676105
 H         2.418325        -1.745626         1.303905
 H         2.019205        -1.867082        -0.513977
 H         5.197186         0.069566         0.488347
 H         5.059483         0.246118        -1.248017
 H         4.974130         2.601429         0.522316
 H         4.130693         2.582854        -0.979483
 H         2.820525         0.693744         2.119846
