19
Iteration:   849charge 0 multiplicity 1
 C         0.014770         0.202401        -0.153249
 C         1.424956        -0.004236         0.025954
 C         2.398422        -1.303982         0.315060
 C         3.258196        -0.147885         0.091630
 C         4.501474         0.553692        -0.291426
 C         4.116871         1.960641        -0.154450
 O         3.027112         2.063647         0.818736
 C         2.578591         0.752837         1.031131
 O         2.388763         0.373016        -1.000211
 H        -0.271453        -0.184554         0.853472
 H         0.030178         1.305181        -0.202012
 H        -0.565713        -0.203594        -0.999487
 H         2.438041        -2.007273         1.134313
 H         2.400380        -1.821718        -0.574603
 H         5.402075         0.217423         0.279542
 H         4.680186         0.166904        -1.348234
 H         4.901305         2.490223         0.392054
 H         3.771133         2.437776        -1.076005
 H         2.566991         0.504695         2.114511
