19
Iteration:  4526charge 0 multiplicity 1
 C        -0.050363         0.027439         0.100887
 C         1.462720        -0.005486         0.022372
 C         2.379450        -1.228142         0.414438
 C         3.271924        -0.010026        -0.015684
 C         4.580445         0.506474        -0.259610
 C         4.312441         1.991291         0.144337
 O         2.971243         2.179209         0.541016
 C         2.501405         0.895861         0.938382
 O         2.293000         0.166613        -1.246385
 H        -0.346419        -0.326929         1.124990
 H        -0.417048         1.094852        -0.075334
 H        -0.417112        -0.725338        -0.627878
 H         2.381911        -1.388815         1.480972
 H         2.327623        -2.150165        -0.248934
 H         5.267534         0.046036         0.402410
 H         4.989797         0.415566        -1.208708
 H         5.008662         2.168099         1.020555
 H         4.477848         2.704939        -0.704299
 H         2.524123         0.555230         2.000393
