19
Iteration:   401charge 0 multiplicity 1
 C         0.093411         0.296640        -0.140276
 C         1.558928        -0.030170         0.125228
 C         2.298075        -1.359771         0.308934
 C         3.292039        -0.104329         0.028242
 C         4.544463         0.660780        -0.406328
 C         4.184687         2.005836         0.017047
 O         2.919533         1.982078         0.784823
 C         2.615788         0.646282         1.068510
 O         2.280688         0.323380        -1.077279
 H        -0.532728         0.323970         0.752305
 H         0.108970         1.326567        -0.503250
 H        -0.387066        -0.458783        -0.786157
 H         2.315856        -1.888467         1.236791
 H         2.173647        -2.029774        -0.562531
 H         5.341033         0.504456         0.274711
 H         4.797265         0.324319        -1.440028
 H         4.901305         2.579053         0.522797
 H         3.996200         2.533859        -0.931796
 H         2.557141         0.559462         2.143348
