19
Iteration:  3897
 C        -0.057884        -0.043129        -0.012032
 C         1.402121         0.014895         0.019508
 C         2.286575        -1.200721         0.238714
 C         3.363202        -0.129571         0.074011
 C         4.658722         0.486662        -0.139050
 C         4.180454         1.958747        -0.170585
 O         3.029517         2.078588         0.646823
 C         2.522043         0.752399         1.046126
 O         2.365822         0.529263        -1.027688
 H        -0.467047        -0.405986         0.974542
 H        -0.418820         0.949129        -0.119025
 H        -0.379198        -0.703536        -0.775318
 H         2.225268        -1.648399         1.313323
 H         2.067087        -1.975823        -0.497258
 H         5.424620         0.291856         0.625998
 H         5.041635         0.249162        -1.231247
 H         4.819759         2.670402         0.289989
 H         3.922516         2.156882        -1.244049
 H         2.705015         0.679662         2.113208
