19
Iteration:  3361charge 0 multiplicity 1
 C        -0.017199        -0.031909        -0.033548
 C         1.484641         0.115191         0.051200
 C         2.209755        -1.287467         0.331632
 C         3.280441        -0.071855         0.022389
 C         4.700727         0.467439        -0.202054
 C         4.238833         1.958022        -0.214572
 O         2.985630         2.104592         0.781682
 C         2.572668         0.836609         1.015176
 O         2.325004         0.412649        -1.074636
 H        -0.282949        -0.253438         1.005268
 H        -0.533655         0.878544        -0.392253
 H        -0.315812        -0.888618        -0.671416
 H         2.140435        -1.726303         1.366465
 H         2.142972        -1.869063        -0.646644
 H         5.450235         0.270018         0.491663
 H         5.114650         0.184552        -1.202215
 H         4.870325         2.683935         0.199006
 H         3.761064         2.149959        -1.146296
 H         2.572130         0.523397         2.081509
