19
Iteration:  2881
 C        -0.018697         0.085222         0.020447
 C         1.450098         0.034454         0.012918
 C         2.324332        -1.297541         0.291411
 C         3.326311        -0.045705        -0.035178
 C         4.662899         0.448885        -0.307813
 C         4.222798         1.988171        -0.029221
 O         2.995594         2.156462         0.827847
 C         2.459379         0.807333         0.972022
 O         2.318008         0.278598        -1.109159
 H        -0.262468        -0.208575         1.120529
 H        -0.400964         1.141388         0.049837
 H        -0.624526        -0.496411        -0.627965
 H         2.579071        -1.679056         1.281116
 H         2.281320        -2.074838        -0.535952
 H         5.521905         0.098470         0.187324
 H         4.754037         0.376608        -1.361319
 H         4.984213         2.699532         0.351051
 H         3.944715         2.517649        -0.974414
 H         2.604363         0.468140         1.953909
