19
Iteration:  4473charge 0 multiplicity 1
 C         0.019213         0.223700         0.077531
 C         1.485997        -0.041437         0.142297
 C         2.394531        -1.355761         0.254379
 C         3.294568        -0.063755         0.036022
 C         4.628819         0.544445        -0.151550
 C         4.289242         2.030679        -0.072897
 O         2.855640         2.078405         0.532301
 C         2.462964         0.813003         0.907375
 O         2.305584         0.205921        -1.049709
 H        -0.407247        -0.156373         0.975497
 H         0.004922         1.330021         0.124653
 H        -0.422512        -0.187907        -0.794696
 H         2.661526        -1.933932         1.139531
 H         2.272049        -1.942912        -0.718776
 H         5.191245         0.256426         0.739222
 H         5.224126         0.418473        -1.055879
 H         4.917850         2.720429         0.600815
 H         4.146094         2.604767        -1.023125
 H         2.446243         0.576814         2.004195
