19
Iteration:  2879charge 0 multiplicity 1
 C        -0.007174         0.082665         0.026523
 C         1.442898         0.021103         0.002714
 C         2.331519        -1.301212         0.300668
 C         3.319620        -0.043927        -0.043071
 C         4.638277         0.431076        -0.295644
 C         4.198196         1.994187        -0.039180
 O         3.019416         2.154444         0.841478
 C         2.463550         0.836028         0.959226
 O         2.315303         0.283238        -1.119061
 H        -0.262463        -0.170327         1.084337
 H        -0.461615         1.125369         0.061773
 H        -0.600422        -0.548032        -0.647090
 H         2.517609        -1.738730         1.269556
 H         2.286962        -2.040292        -0.512185
 H         5.591317         0.160184         0.249564
 H         4.846307         0.385366        -1.412445
 H         5.031005         2.717758         0.380401
 H         3.947131         2.519780        -0.963469
 H         2.630053         0.400930         2.033574
