19
Iteration:  1781charge 0 multiplicity 1
 C        -0.002154         0.152104         0.094746
 C         1.500744         0.107273         0.019378
 C         2.335253        -1.329318         0.224063
 C         3.285895        -0.126225        -0.040778
 C         4.613893         0.511643        -0.271703
 C         4.105134         2.053426        -0.120151
 O         3.070127         2.080436         0.827899
 C         2.529084         0.792929         1.006589
 O         2.341362         0.264565        -1.114155
 H        -0.300403        -0.340082         1.003616
 H        -0.376892         1.153628         0.165848
 H        -0.695225        -0.385778        -0.639664
 H         2.428078        -1.950704         1.223453
 H         2.240396        -1.935650        -0.721955
 H         5.294446         0.135937         0.576604
 H         5.093329         0.315961        -1.232624
 H         4.853702         2.686078         0.292672
 H         3.726793         2.439175        -1.074691
 H         2.269920         0.473572         2.077606
