19
Iteration:  3131
 C         0.016579         0.216768         0.002167
 C         1.490551        -0.031829         0.166552
 C         2.343610        -1.306123         0.277142
 C         3.352015        -0.134077         0.027550
 C         4.601550         0.586818        -0.198308
 C         4.263546         2.021371        -0.173950
 O         2.887605         2.025190         0.686421
 C         2.604337         0.728953         1.004555
 O         2.207525         0.343464        -1.083132
 H        -0.754571         0.005705         0.848258
 H        -0.063738         1.264604        -0.280158
 H        -0.269858        -0.305161        -0.890191
 H         2.418210        -1.698697         1.329084
 H         2.384966        -2.041602        -0.506639
 H         5.436077         0.174987         0.533168
 H         5.054578         0.275733        -1.125604
 H         4.998934         2.626796         0.302028
 H         3.750370         2.463577        -0.992212
 H         2.974342         0.403431         1.899876
