19
Iteration:  4864charge 0 multiplicity 1
 C        -0.002511         0.102126        -0.124309
 C         1.460529        -0.027676         0.124394
 C         2.456744        -1.297348         0.500844
 C         3.226683        -0.100221        -0.064076
 C         4.603432         0.506268        -0.332826
 C         4.319713         1.995591         0.003100
 O         2.891835         2.130841         0.628947
 C         2.544530         0.859006         0.971273
 O         2.229591         0.297253        -1.029580
 H        -0.603158        -0.243501         0.668743
 H        -0.273898         1.167458        -0.275065
 H        -0.290659        -0.396264        -1.036421
 H         2.452578        -1.503640         1.589450
 H         2.371403        -2.224126         0.019776
 H         5.342556         0.040677         0.390243
 H         5.101121         0.420420        -1.348412
 H         5.186197         2.409480         0.512114
 H         4.481584         2.419776        -1.096397
 H         2.495711         0.661497         2.081238
