19
Iteration:   654
 C        -0.053018         0.099497        -0.014090
 C         1.483429         0.073001         0.093667
 C         2.255330        -1.332004         0.256543
 C         3.227601        -0.105803        -0.091919
 C         4.686656         0.491377        -0.246958
 C         4.246220         2.023727        -0.000922
 O         2.995658         2.097403         0.753282
 C         2.549926         0.782335         0.954371
 O         2.341992         0.390182        -1.062630
 H        -0.454632        -0.413033         0.884472
 H        -0.765260         0.925540        -0.204057
 H        -0.170173        -0.686309        -0.755055
 H         2.309729        -1.669117         1.358355
 H         2.064348        -1.991903        -0.566804
 H         5.326145         0.066008         0.557498
 H         5.240455         0.242555        -1.112460
 H         5.025378         2.609778         0.544598
 H         4.077279         2.542946        -1.001709
 H         2.715772         0.247920         1.873222
