19
Iteration:  3929charge 0 multiplicity 1
 C        -0.012973         0.197037        -0.064340
 C         1.490143        -0.015612         0.087376
 C         2.433144        -1.270954         0.314212
 C         3.258942        -0.108019        -0.012190
 C         4.604386         0.556883        -0.215550
 C         4.202791         2.021474        -0.109884
 O         2.980232         2.163563         0.834773
 C         2.531034         0.782359         1.007005
 O         2.246543         0.155438        -1.156862
 H        -0.564542        -0.393619         0.747806
 H        -0.226957         1.255769        -0.043805
 H        -0.375387        -0.113298        -1.035576
 H         2.542563        -1.879181         1.315245
 H         2.194053        -1.990568        -0.453124
 H         5.242906         0.298397         0.611450
 H         5.105666         0.328795        -1.221806
 H         5.021659         2.613703         0.333606
 H         4.090749         2.402946        -1.153669
 H         2.771766         0.465978         2.013616
