19
Iteration:  2407charge 0 multiplicity 1
 C         0.018013         0.155099         0.174828
 C         1.519672         0.018522         0.012926
 C         2.359615        -1.283726         0.290466
 C         3.318486        -0.141087         0.048074
 C         4.645212         0.571746        -0.267210
 C         4.225324         1.995413         0.001870
 O         2.958425         2.101153         0.650837
 C         2.503128         0.769537         0.932703
 O         2.245287         0.255266        -1.181355
 H        -0.254153        -0.068449         1.235891
 H        -0.139315         1.221768         0.075930
 H        -0.605857        -0.399169        -0.482584
 H         2.194411        -1.798957         1.262009
 H         2.239892        -2.008652        -0.635564
 H         5.454982         0.318342         0.451333
 H         4.786624         0.399070        -1.310330
 H         4.738324         2.662832         0.721992
 H         4.277602         2.459703        -1.104741
 H         2.499130         0.533941         1.979640
