19
Iteration:  2865
 C        -0.041115         0.060668         0.064827
 C         1.474928        -0.003875         0.042654
 C         2.357642        -1.267669         0.304526
 C         3.210058        -0.103124        -0.022218
 C         4.574447         0.540224        -0.266271
 C         4.181542         2.050782        -0.101663
 O         3.131835         2.098490         0.880574
 C         2.560272         0.811944         0.931754
 O         2.290546         0.308931        -1.199267
 H        -0.381714        -0.282215         0.998242
 H        -0.339779         1.035804        -0.315129
 H        -0.380299        -0.716440        -0.691994
 H         2.218596        -1.685700         1.320382
 H         2.288868        -1.943377        -0.507346
 H         5.121999         0.178374         0.709933
 H         5.143853         0.245196        -1.239534
 H         5.074427         2.559023         0.370231
 H         3.866234         2.474709        -1.054064
 H         2.345781         0.604421         2.100934
