19
Iteration:  4079charge 0 multiplicity 1
 C        -0.095436         0.035565        -0.023726
 C         1.399300        -0.002043         0.021358
 C         2.358519        -1.288013         0.396288
 C         3.257117        -0.081356         0.018276
 C         4.635067         0.567103        -0.301144
 C         4.276379         2.060748        -0.076701
 O         3.039197         2.051019         0.845945
 C         2.493342         0.847390         0.996450
 O         2.337950         0.296611        -1.198534
 H        -0.518632        -0.221972         1.036712
 H        -0.303351         1.105064        -0.199155
 H        -0.541072        -0.589027        -0.816374
 H         2.264584        -1.469035         1.512314
 H         2.450214        -2.005173        -0.375933
 H         5.645857         0.052183         0.103938
 H         4.982328         0.509893        -1.317974
 H         5.239827         2.555884         0.373116
 H         4.019214         2.444841        -1.078861
 H         2.359368         0.435116         2.072045
