19
Iteration:  1137
 C        -0.019595         0.014727        -0.035537
 C         1.445070         0.061320         0.042790
 C         2.299942        -1.190482         0.393960
 C         3.256808        -0.078161        -0.009017
 C         4.603841         0.475730        -0.307657
 C         4.274701         2.048536        -0.031434
 O         3.089604         2.051430         0.774059
 C         2.602201         0.815533         1.023493
 O         2.222942         0.313252        -1.170165
 H        -0.423770        -0.107569         0.955278
 H        -0.437298         0.940616        -0.418608
 H        -0.265245        -0.794647        -0.759968
 H         2.310867        -1.600113         1.450688
 H         2.089167        -1.974888        -0.401968
 H         5.328355         0.082246         0.442660
 H         4.650958         0.302024        -1.379938
 H         5.015625         2.582535         0.518792
 H         4.116144         2.599639        -0.957178
 H         2.586467         0.424199         2.005125
