19
Iteration:  2667
 C        -0.094921         0.011891        -0.043246
 C         1.375285         0.024068         0.108746
 C         2.410978        -1.254867         0.359214
 C         3.227594        -0.052934        -0.051444
 C         4.698221         0.520256        -0.300854
 C         4.266176         2.028212        -0.031826
 O         3.056437         2.105582         0.771227
 C         2.521866         0.838944         0.957799
 O         2.216674         0.285919        -1.107140
 H        -0.526720        -0.027141         1.018424
 H        -0.417466         0.915365        -0.538800
 H        -0.205533        -0.845491        -0.718671
 H         2.724029        -1.595305         1.295543
 H         2.345878        -1.973033        -0.523725
 H         5.355034         0.204622         0.572300
 H         4.945494         0.286475        -1.337678
 H         5.203608         2.358039         0.702572
 H         4.228801         2.595054        -0.987306
 H         2.632492         0.486703         1.948719
