19
Iteration:   648charge 0 multiplicity 1
 C        -0.004776         0.054479        -0.016873
 C         1.456459         0.076691         0.148931
 C         2.249981        -1.359657         0.219438
 C         3.196306        -0.074338        -0.078647
 C         4.692649         0.463294        -0.203651
 C         4.328050         2.047812        -0.050043
 O         2.966113         2.077680         0.755075
 C         2.548500         0.783814         0.952360
 O         2.319753         0.431346        -1.075993
 H        -0.397019        -0.238226         0.979849
 H        -0.607811         0.959516        -0.227165
 H        -0.148103        -0.770599        -0.743990
 H         2.215929        -1.761862         1.231847
 H         2.052996        -2.050294        -0.618182
 H         5.310103         0.091643         0.653936
 H         5.298768         0.305675        -1.147594
 H         4.999920         2.766263         0.414048
 H         4.091024         2.396639        -1.034971
 H         2.528917         0.312337         2.005804
