19
Iteration:   560
 C         0.040896         0.325195        -0.064796
 C         1.478784        -0.027529         0.097179
 C         2.222481        -1.460441         0.283529
 C         3.363165        -0.149744        -0.034221
 C         4.631897         0.664885        -0.353056
 C         4.206732         2.118169        -0.015145
 O         2.942629         2.047850         0.851415
 C         2.558565         0.664476         1.012303
 O         2.318665         0.199194        -1.121783
 H        -0.503477         0.116996         0.867501
 H        -0.101368         1.412441        -0.235943
 H        -0.315808        -0.302081        -0.880867
 H         2.341378        -1.737564         1.337349
 H         1.820211        -2.138047        -0.404684
 H         5.586455         0.432258         0.200442
 H         4.984341         0.695461        -1.359697
 H         4.929129         2.728785         0.513802
 H         3.927291         2.681390        -0.881857
 H         2.645344         0.576999         2.099969
