19
Iteration:  2737
 C        -0.019450         0.188368         0.079829
 C         1.492903        -0.059804         0.133332
 C         2.440326        -1.343720         0.313362
 C         3.267908        -0.046980        -0.157108
 C         4.631624         0.506819        -0.173239
 C         4.322728         2.042099         0.094564
 O         2.908710         2.147653         0.643059
 C         2.538106         0.788597         0.874024
 O         2.161839         0.198004        -1.178109
 H        -0.467532        -0.262982         0.946153
 H        -0.252307         1.282494         0.257901
 H        -0.484029        -0.164494        -0.922414
 H         2.820692        -1.554407         1.375503
 H         2.380998        -2.100082        -0.447359
 H         5.294814         0.226204         0.601377
 H         5.016032         0.450370        -1.215163
 H         4.979623         2.529611         0.954850
 H         4.325158         2.691530        -0.826469
 H         2.682723         0.513656         1.885431
