19
Iteration:   303charge 0 multiplicity 1
 C        -0.014891        -0.037195         0.028014
 C         1.480683         0.041303         0.051733
 C         2.318857        -1.257558         0.164831
 C         3.248225        -0.051878         0.058529
 C         4.603591         0.406713        -0.176179
 C         4.295172         2.034073        -0.061444
 O         3.039529         2.077415         0.713254
 C         2.473574         0.774435         1.000204
 O         2.302853         0.493049        -1.086909
 H        -0.340343        -0.447194         1.007491
 H        -0.568322         0.930866         0.045941
 H        -0.319293        -0.694832        -0.823265
 H         2.353358        -1.766386         1.131571
 H         2.403308        -1.867272        -0.724339
 H         5.288789        -0.107095         0.450062
 H         4.976812         0.069531        -1.196148
 H         5.002491         2.679535         0.356839
 H         4.072913         2.393963        -1.082386
 H         2.316177         0.824302         2.062787
