19
Iteration:  3222
 C        -0.029027         0.053604         0.013308
 C         1.452618        -0.053543         0.203048
 C         2.391902        -1.249530         0.336344
 C         3.231370        -0.053498        -0.096523
 C         4.570323         0.397043        -0.246034
 C         4.249664         2.068182         0.075288
 O         2.978088         2.129395         0.610344
 C         2.628320         0.850547         0.972968
 O         2.234890         0.340087        -1.161796
 H        -0.503306        -0.182941         0.927333
 H        -0.390340         1.077128        -0.280172
 H        -0.355706        -0.705281        -0.737863
 H         2.554214        -1.692891         1.249056
 H         2.161273        -1.859752        -0.551825
 H         5.271784         0.205919         0.574359
 H         5.177207         0.117268        -1.170631
 H         5.016692         2.351851         0.808833
 H         4.297330         2.559368        -0.944187
 H         2.938871         0.521341         1.879505
