19
Iteration:  4747
 C        -0.003458         0.047294        -0.164930
 C         1.455227         0.002500         0.107327
 C         2.290648        -1.268919         0.435344
 C         3.227988        -0.059234         0.052558
 C         4.622250         0.602819        -0.277600
 C         4.208177         2.054051        -0.165307
 O         3.121252         2.095010         0.778287
 C         2.535879         0.819994         1.015125
 O         2.289241         0.178293        -1.070358
 H        -0.620813        -0.025229         0.791685
 H        -0.190572         1.019084        -0.770301
 H        -0.257154        -0.775368        -0.943575
 H         2.253000        -1.713264         1.510824
 H         1.977624        -2.014996        -0.274559
 H         5.461363         0.448773         0.382881
 H         4.977310         0.349474        -1.292957
 H         5.035070         2.733876         0.167655
 H         3.750188         2.600142        -1.015408
 H         2.534978         0.670709         2.130017
