19
Iteration:  1301
 C         0.026820         0.069734        -0.033665
 C         1.508675         0.063137         0.001796
 C         2.222568        -1.311755         0.273051
 C         3.321096        -0.143405         0.103208
 C         4.651780         0.515497        -0.276554
 C         4.174175         2.003283        -0.163302
 O         3.022846         2.131018         0.834920
 C         2.586892         0.783284         1.001702
 O         2.294545         0.378008        -1.058157
 H        -0.388681        -0.498157         0.835112
 H        -0.616759         0.969006        -0.119170
 H        -0.199824        -0.540850        -0.957322
 H         2.045185        -1.817009         1.310482
 H         2.073062        -2.025509        -0.561414
 H         5.395973         0.258366         0.431454
 H         4.811014         0.241640        -1.334059
 H         5.014026         2.659282         0.169466
 H         3.802702         2.324432        -1.177383
 H         2.611626         0.586687         2.143760
