19
Iteration:  2114charge 0 multiplicity 1
 C        -0.085325         0.197572         0.159726
 C         1.457529        -0.022515         0.072242
 C         2.419249        -1.316918         0.284024
 C         3.301687        -0.145925        -0.095575
 C         4.658973         0.517187        -0.292165
 C         4.257654         2.045600         0.042083
 O         2.922753         2.212958         0.775451
 C         2.532501         0.773113         0.927553
 O         2.269177         0.205143        -1.210257
 H        -0.429258         0.035320         1.206978
 H        -0.345667         1.183762        -0.297680
 H        -0.447671        -0.530028        -0.600998
 H         2.663682        -1.664067         1.374302
 H         2.311035        -2.178674        -0.435572
 H         5.402550        -0.025037         0.299509
 H         5.078661         0.433565        -1.284734
 H         5.045580         2.590224         0.595872
 H         4.174216         2.488516        -0.950325
 H         2.487780         0.453279         1.908155
