19
Iteration:   139charge 0 multiplicity 1
 C        -0.120237         0.072312        -0.074586
 C         1.361458        -0.077491        -0.007866
 C         2.439096        -1.268405         0.367859
 C         3.227223        -0.024069         0.014710
 C         4.618919         0.508784        -0.235629
 C         4.294713         2.006620        -0.139578
 O         3.126022         2.119813         0.916642
 C         2.501381         0.831326         0.994276
 O         2.240510         0.333811        -1.147710
 H        -0.472374        -0.546162         0.769626
 H        -0.416679         1.149836         0.093470
 H        -0.347457        -0.241063        -1.111503
 H         2.403185        -1.625161         1.419525
 H         2.525234        -2.078218        -0.378242
 H         5.513483         0.119166         0.319112
 H         4.969084         0.264950        -1.347801
 H         5.187992         2.555944         0.139527
 H         3.890135         2.235746        -1.176780
 H         2.534924         0.376476         1.983967
