19
Iteration:   910
 C         0.009113         0.232772         0.107025
 C         1.447458        -0.043683         0.055428
 C         2.393396        -1.302991         0.273667
 C         3.209679        -0.111614        -0.063321
 C         4.590520         0.554444        -0.179119
 C         4.285485         2.065124        -0.108949
 O         2.976376         2.065276         0.797812
 C         2.478358         0.720872         0.909110
 O         2.330611         0.269151        -1.183255
 H        -0.594121        -0.211145         0.898087
 H        -0.190702         1.304367         0.218698
 H        -0.488579        -0.083792        -0.850448
 H         2.380537        -1.642052         1.380389
 H         2.603850        -2.093333        -0.551543
 H         5.029284         0.346965         0.792970
 H         5.257508         0.001305        -0.898570
 H         5.052305         2.688664         0.445513
 H         4.152629         2.470262        -1.166310
 H         2.440186         0.537711         2.002983
