19
Iteration:  3690charge 0 multiplicity 1
 C        -0.171771        -0.027571        -0.044779
 C         1.432062        -0.064846         0.137179
 C         2.347065        -1.294112         0.325308
 C         3.301387        -0.059953         0.023625
 C         4.674347         0.470522        -0.258561
 C         4.436113         2.002225        -0.088650
 O         2.988970         2.149304         0.679360
 C         2.570323         0.829443         0.945526
 O         2.180214         0.445135        -1.046317
 H        -0.739996        -0.077257         0.930742
 H        -0.357192         0.831606        -0.635121
 H        -0.329407        -0.887372        -0.640793
 H         2.419690        -1.628353         1.343211
 H         2.237147        -2.086966        -0.302266
 H         5.422969         0.181468         0.515691
 H         4.871461         0.211258        -1.384971
 H         5.220556         2.397904         0.590807
 H         4.270445         2.644642        -1.030439
 H         2.723176         0.693572         2.045651
