19
Iteration:  1558
 C        -0.010286         0.318425         0.032650
 C         1.442436         0.008736         0.072579
 C         2.566209        -1.370412         0.272082
 C         3.282452        -0.162277        -0.034238
 C         4.642886         0.468336        -0.279687
 C         4.098754         2.039596        -0.071964
 O         2.977716         2.084709         0.866227
 C         2.503405         0.765052         0.921930
 O         2.240559         0.255542        -1.107418
 H        -0.476093         0.364096         1.034021
 H        -0.022303         1.336220        -0.431745
 H        -0.650302        -0.185548        -0.697855
 H         2.959996        -1.862547         1.179984
 H         2.394867        -2.144332        -0.581092
 H         5.417746         0.463586         0.525612
 H         4.869509         0.425668        -1.362589
 H         4.895010         2.655753         0.275424
 H         3.806873         2.319961        -1.029795
 H         2.522984         0.419277         2.029162
