19
Iteration:  4198
 C        -0.109179         0.041834         0.005464
 C         1.401696         0.053660         0.082122
 C         2.260949        -1.311989         0.302828
 C         3.287518        -0.110813        -0.054658
 C         4.605248         0.560521        -0.171788
 C         4.296091         2.089443        -0.127256
 O         3.098032         2.113651         0.740892
 C         2.578363         0.752623         0.985707
 O         2.287477         0.284551        -1.133582
 H        -0.518797        -0.003660         1.024686
 H        -0.492694         0.863852        -0.517890
 H        -0.339838        -0.847999        -0.522699
 H         2.475992        -1.560749         1.393736
 H         2.331489        -2.087530        -0.458348
 H         5.380952         0.339594         0.757129
 H         5.310131         0.421376        -0.999977
 H         5.031227         2.686385         0.418410
 H         3.764238         2.494910        -1.064388
 H         2.565848         0.472843         2.015621
