19
Iteration:  1741
 C        -0.002548         0.296750        -0.057027
 C         1.474384        -0.027294         0.167561
 C         2.389811        -1.379721         0.312830
 C         3.293264        -0.132079        -0.118969
 C         4.605530         0.539278        -0.357211
 C         4.123543         2.061708        -0.056226
 O         2.938671         2.034505         0.785348
 C         2.638971         0.723628         1.030064
 O         2.260853         0.306703        -1.038346
 H        -0.350979         0.274037         0.966633
 H        -0.094053         1.317384        -0.411092
 H        -0.408202        -0.355581        -0.816764
 H         2.797432        -1.831209         1.159202
 H         2.203590        -2.082611        -0.536109
 H         5.266261         0.294321         0.433646
 H         5.165156         0.502516        -1.256333
 H         4.920778         2.600245         0.511968
 H         3.788556         2.413619        -1.061254
 H         2.761956         0.467684         2.047232
