19
Iteration:  1117charge 0 multiplicity 1
 C        -0.073685         0.052522        -0.014713
 C         1.482265         0.115509         0.112169
 C         2.168855        -1.269329         0.387051
 C         3.279395        -0.145706        -0.128773
 C         4.685458         0.537490        -0.321173
 C         4.221885         2.006239        -0.075151
 O         3.015420         2.099546         0.807351
 C         2.612602         0.789651         0.962974
 O         2.354695         0.312509        -1.088144
 H        -0.452367        -0.468638         0.863643
 H        -0.544408         1.011127        -0.184314
 H        -0.216219        -0.589740        -0.905095
 H         2.166279        -1.551606         1.426060
 H         1.888750        -2.086669        -0.283726
 H         5.287501         0.159595         0.569264
 H         5.224753         0.426225        -1.365612
 H         5.114544         2.491382         0.328942
 H         3.834808         2.509687        -1.020651
 H         2.780910         0.525530         2.033595
