19
Iteration:  2166charge 0 multiplicity 1
 C        -0.089660        -0.053685        -0.027956
 C         1.412579         0.000397         0.262104
 C         2.444169        -1.247347         0.334219
 C         3.238601        -0.055511        -0.101914
 C         4.628347         0.423664        -0.375035
 C         4.312025         1.987677         0.142575
 O         2.977908         2.177166         0.571026
 C         2.587923         0.879510         0.916111
 O         2.229397         0.346372        -1.049424
 H        -0.495984        -0.346930         0.990869
 H        -0.535287         0.999179        -0.070836
 H        -0.342140        -0.466047        -0.952451
 H         2.677692        -1.717854         1.274928
 H         2.149730        -1.861217        -0.444340
 H         5.418440        -0.055738         0.263518
 H         4.764866         0.244564        -1.445427
 H         4.975100         2.279415         0.911796
 H         4.503286         2.788340        -0.703516
 H         2.679853         0.600899         2.060712
