19
Iteration:   262charge 0 multiplicity 1
 C        -0.082280         0.141704        -0.135569
 C         1.416088         0.035106         0.155793
 C         2.379860        -1.244709         0.457935
 C         3.233678        -0.092717        -0.132253
 C         4.635081         0.529313        -0.338317
 C         4.293706         2.143589         0.074711
 O         3.038131         1.990008         0.813982
 C         2.589063         0.744651         0.983057
 O         2.243524         0.257101        -1.170442
 H        -0.666581         0.008937         0.787602
 H        -0.187969         1.069448        -0.629142
 H        -0.308242        -0.772945        -0.685967
 H         2.535026        -1.891133         1.303749
 H         2.162860        -1.948005        -0.378788
 H         5.444345         0.110089         0.272765
 H         4.879864         0.608005        -1.450652
 H         4.955155         2.801627         0.654329
 H         4.072080         2.756843        -0.870408
 H         2.548534         0.269863         1.956028
