19
Iteration:  2760charge 0 multiplicity 1
 C         0.038711         0.231208         0.096014
 C         1.488511        -0.032778         0.058967
 C         2.351542        -1.331016         0.424679
 C         3.264952        -0.089479        -0.162539
 C         4.606298         0.613772        -0.324494
 C         4.251618         2.087140         0.107709
 O         2.931115         2.068508         0.669899
 C         2.573817         0.709650         0.907496
 O         2.245323         0.158444        -1.169489
 H        -0.559748        -0.097885         0.965673
 H        -0.136694         1.355261         0.067256
 H        -0.306146        -0.151890        -0.906524
 H         2.352221        -1.693737         1.526132
 H         2.263511        -1.989747        -0.481724
 H         5.072343         0.300851         0.584858
 H         5.407903         0.653906        -1.080977
 H         5.002357         2.579687         0.869714
 H         4.004390         2.780442        -0.751372
 H         2.691275         0.411341         1.932317
