19
Iteration:  1312charge 0 multiplicity 1
 C        -0.002974         0.044405        -0.033619
 C         1.449801         0.007609         0.048996
 C         2.296260        -1.199480         0.190397
 C         3.313324        -0.150831         0.130016
 C         4.539005         0.520954        -0.268635
 C         4.176805         1.967733        -0.129195
 O         3.099053         2.123169         0.831430
 C         2.533795         0.831181         1.033000
 O         2.330191         0.329835        -1.125045
 H        -0.300114        -0.350691         0.991596
 H        -0.176397         1.161704        -0.112068
 H        -0.533371        -0.596699        -0.780902
 H         2.357944        -1.634000         1.289913
 H         2.377233        -2.009777        -0.541492
 H         5.401273         0.263549         0.279497
 H         4.904520         0.219030        -1.279922
 H         5.009387         2.601676         0.244132
 H         3.743812         2.330054        -1.127073
 H         2.204843         0.564296         2.123137
