19
Iteration:   709
 C        -0.078191         0.262704        -0.078189
 C         1.496763        -0.021400         0.168840
 C         2.439201        -1.334675         0.293200
 C         3.236162        -0.181378        -0.078194
 C         4.582685         0.576249        -0.345477
 C         4.312194         2.051121         0.126484
 O         2.930331         2.112461         0.731022
 C         2.600844         0.790120         0.996414
 O         2.260630         0.187526        -1.139586
 H        -0.767065        -0.250455         0.577651
 H        -0.166147         1.335905        -0.053747
 H        -0.492273         0.176788        -1.068901
 H         2.642851        -1.829585         1.291881
 H         2.241195        -2.047408        -0.454649
 H         5.315336         0.071489         0.321908
 H         4.886330         0.404657        -1.325940
 H         4.977136         2.391694         0.973912
 H         4.174448         2.818988        -0.681921
 H         2.579770         0.462068         1.995227
