19
Iteration:   568
 C         0.044949         0.271430        -0.047269
 C         1.529484         0.003981         0.023345
 C         2.201050        -1.379391         0.327101
 C         3.322162        -0.126319        -0.021731
 C         4.657662         0.600608        -0.307185
 C         4.221723         2.202464        -0.030599
 O         2.922482         2.031799         0.853556
 C         2.638099         0.644879         1.019491
 O         2.275272         0.219930        -1.138415
 H        -0.443634         0.131322         0.926602
 H         0.047139         1.327602        -0.401516
 H        -0.512052        -0.290030        -0.808353
 H         2.164757        -1.963315         1.300946
 H         2.010860        -2.147821        -0.421703
 H         5.527943         0.208174         0.316173
 H         4.837659         0.594421        -1.347050
 H         4.868332         2.887073         0.467241
 H         3.846585         2.563017        -0.996465
 H         2.632652         0.097068         2.004977
