19
Iteration:  3555charge 0 multiplicity 1
 C        -0.074625         0.036059        -0.036555
 C         1.427430         0.001262         0.054388
 C         2.353595        -1.303428         0.318828
 C         3.266888        -0.091852         0.046886
 C         4.588813         0.468664        -0.284967
 C         4.272558         1.977949        -0.066061
 O         3.020417         2.156171         0.619605
 C         2.577728         0.862483         1.035003
 O         2.285071         0.361609        -1.004408
 H        -0.501254        -0.234213         0.917842
 H        -0.462662         1.070630        -0.221121
 H        -0.565639        -0.564967        -0.837086
 H         2.486951        -1.751463         1.268183
 H         2.416397        -2.089230        -0.470571
 H         5.458963         0.011688         0.405881
 H         4.911450         0.191664        -1.322903
 H         5.028618         2.576177         0.507594
 H         4.112011         2.425907        -1.030572
 H         2.801182         0.724020         2.166396
