19
Iteration:  1814
 C        -0.058614         0.020509         0.047975
 C         1.436100         0.010554         0.123123
 C         2.383141        -1.259956         0.254004
 C         3.259743        -0.054263        -0.133410
 C         4.712567         0.548073        -0.179438
 C         4.231453         1.954336        -0.132122
 O         3.060912         2.049838         0.731978
 C         2.564935         0.763906         1.010277
 O         2.177587         0.446077        -1.081756
 H        -0.512861        -0.405377         0.911596
 H        -0.225339         1.074071         0.109271
 H        -0.445106        -0.317882        -0.968994
 H         2.472905        -1.760849         1.280744
 H         2.171200        -2.038679        -0.555342
 H         5.179099         0.105908         0.746460
 H         5.307372         0.320070        -1.038967
 H         4.995642         2.534008         0.292536
 H         3.977961         2.329056        -1.149971
 H         2.435035         0.485381         2.119199
