19
Iteration:  2952
 C        -0.036178         0.212837         0.109452
 C         1.395380        -0.055096         0.053997
 C         2.477732        -1.277757         0.304769
 C         3.251084        -0.069179        -0.074220
 C         4.584783         0.523566        -0.299642
 C         4.285883         2.020959         0.116517
 O         2.957271         2.110820         0.631740
 C         2.572095         0.752571         0.897116
 O         2.251868         0.218497        -1.142402
 H        -0.308671        -0.176630         1.070706
 H        -0.222048         1.310902         0.163486
 H        -0.782845        -0.232390        -0.650926
 H         2.663912        -1.619587         1.397617
 H         2.231691        -2.049659        -0.411663
 H         5.312841         0.168457         0.570379
 H         4.982838         0.421259        -1.398532
 H         4.932547         2.457450         0.887487
 H         4.456510         2.703172        -0.695792
 H         2.537852         0.500734         1.966483
