19
Iteration:  1564charge 0 multiplicity 1
 C        -0.079096         0.327932         0.033711
 C         1.447475         0.033359         0.049108
 C         2.509621        -1.379395         0.295142
 C         3.309096        -0.147357        -0.003373
 C         4.681670         0.484154        -0.291948
 C         4.138004         2.066751        -0.099761
 O         2.957645         2.047985         0.862312
 C         2.509070         0.721711         0.966768
 O         2.260285         0.249820        -1.127604
 H        -0.433393         0.264413         1.053661
 H         0.084506         1.343250        -0.339158
 H        -0.617789        -0.295672        -0.711240
 H         2.879830        -1.856590         1.213818
 H         2.363594        -2.095094        -0.458703
 H         5.560396         0.511304         0.331320
 H         4.791531         0.401424        -1.371718
 H         4.835110         2.841214         0.368951
 H         3.877098         2.542877        -1.137460
 H         2.502216         0.335713         1.941715
