19
Iteration:  3747charge 0 multiplicity 1
 C        -0.085012         0.087990         0.109965
 C         1.448354        -0.050663         0.026197
 C         2.313463        -1.274525         0.349793
 C         3.310731        -0.051255        -0.119099
 C         4.668963         0.514162        -0.262316
 C         4.323107         2.055321         0.158843
 O         2.992499         2.150518         0.623883
 C         2.569684         0.857348         0.896081
 O         2.194758         0.201694        -1.181841
 H        -0.381838        -0.390561         1.092249
 H        -0.446318         1.126952         0.158400
 H        -0.632756        -0.406995        -0.688835
 H         2.477459        -1.623447         1.355108
 H         2.178301        -2.093923        -0.363453
 H         5.257352         0.061461         0.503994
 H         5.243907         0.315087        -1.162362
 H         5.163791         2.330609         0.870264
 H         4.385303         2.822355        -0.700220
 H         2.686195         0.615599         1.971442
