19
Iteration:    96charge 0 multiplicity 1
 C        -0.056121         0.100487        -0.114758
 C         1.500219         0.107660         0.181331
 C         2.279891        -1.301218         0.363911
 C         3.290488        -0.155263        -0.007890
 C         4.647220         0.596011        -0.375139
 C         4.291674         2.019515        -0.039221
 O         2.933264         2.066107         0.789033
 C         2.670466         0.763077         1.047957
 O         2.249974         0.287510        -1.082801
 H        -0.822459        -0.180102         0.616815
 H        -0.328077         1.137068        -0.497393
 H        -0.129529        -0.517815        -0.993570
 H         2.373177        -1.850442         1.305877
 H         2.044010        -1.991643        -0.469900
 H         5.428591         0.087144         0.236135
 H         4.783540         0.449536        -1.548332
 H         5.014247         2.742801         0.379206
 H         4.023487         2.478276        -1.110782
 H         2.719905         0.476654         2.155557
