19
Iteration:  2416
 C         0.022986         0.202037         0.217550
 C         1.497694        -0.015978         0.023048
 C         2.340962        -1.321655         0.282046
 C         3.288766        -0.156036         0.071845
 C         4.674177         0.618295        -0.311867
 C         4.277486         2.024954         0.052239
 O         2.928608         2.066987         0.647330
 C         2.502456         0.840191         0.951309
 O         2.257861         0.228069        -1.274827
 H        -0.162362        -0.123153         1.288770
 H        -0.299264         1.243960        -0.069671
 H        -0.532016        -0.520498        -0.308369
 H         2.144633        -1.769665         1.327869
 H         2.347697        -2.135522        -0.547428
 H         5.403253         0.139914         0.387901
 H         5.057638         0.452690        -1.326148
 H         5.062237         2.556269         0.611531
 H         4.038060         2.608686        -0.810302
 H         2.225833         0.575050         2.076415
