19
Iteration:  3472charge 0 multiplicity 1
 C         0.006281         0.168796         0.036461
 C         1.511458         0.066770         0.136764
 C         2.418629        -1.257591         0.304443
 C         3.313819        -0.097213         0.002652
 C         4.549453         0.551382        -0.241324
 C         4.272576         1.956526         0.090392
 O         2.919972         2.087165         0.523000
 C         2.549697         0.806186         0.950000
 O         2.224138         0.239310        -1.093853
 H        -0.324276         0.008089         1.039854
 H        -0.384594         1.153519        -0.349958
 H        -0.384912        -0.691844        -0.541522
 H         2.534087        -1.919400         1.221425
 H         2.222677        -1.926681        -0.613126
 H         5.172617         0.110289         0.435866
 H         4.855470         0.333253        -1.287887
 H         5.021466         2.319853         0.787501
 H         4.482738         2.538163        -0.854517
 H         2.555628         0.567437         1.974621
