19
Iteration:  2806
 C         0.077147         0.152069        -0.043780
 C         1.452828        -0.012776         0.115210
 C         2.385409        -1.327567         0.262142
 C         3.247210        -0.036387         0.032877
 C         4.577352         0.547166        -0.300405
 C         4.178512         1.993541        -0.168879
 O         2.975716         2.032411         0.743296
 C         2.515933         0.758361         1.019497
 O         2.350015         0.378587        -1.014662
 H        -0.259871         0.130397         1.063944
 H        -0.362035         1.100432        -0.354255
 H        -0.345197        -0.667557        -0.545205
 H         2.381734        -1.972391         1.212071
 H         2.309219        -1.972916        -0.724472
 H         5.298647         0.120278         0.349359
 H         4.834709         0.111127        -1.219594
 H         4.820499         2.432283         0.550836
 H         3.907756         2.699740        -1.055029
 H         2.517038         0.604900         2.103009
