19
Iteration:  1578charge 0 multiplicity 1
 C        -0.017460         0.316146         0.025074
 C         1.484069        -0.024344         0.075819
 C         2.351404        -1.339789         0.337639
 C         3.339046        -0.116583         0.004930
 C         4.649888         0.650384        -0.368146
 C         4.163605         2.082402        -0.081568
 O         2.963410         1.987127         0.792809
 C         2.555104         0.663887         1.005424
 O         2.329629         0.249368        -1.124498
 H        -0.471461         0.082414         0.983312
 H        -0.414770         1.287967        -0.211338
 H        -0.593288        -0.287539        -0.702677
 H         2.201820        -1.740819         1.304308
 H         2.313065        -2.117303        -0.507163
 H         5.342988         0.202010         0.314183
 H         4.856975         0.484874        -1.361975
 H         4.948101         2.617179         0.425579
 H         3.819621         2.507613        -0.981883
 H         2.530843         0.440757         2.092659
