19
Iteration:  2922
 C         0.068186         0.228994         0.014751
 C         1.486532        -0.053482         0.181391
 C         2.369514        -1.343272         0.272774
 C         3.259795        -0.157753        -0.131099
 C         4.637524         0.557247        -0.284576
 C         4.280624         2.066082         0.100375
 O         2.810107         2.120276         0.555277
 C         2.675081         0.750767         0.958993
 O         2.186997         0.281206        -1.020462
 H        -0.473774        -0.115665         0.899145
 H        -0.138990         1.327617         0.102626
 H        -0.292006        -0.166182        -0.934434
 H         2.542508        -1.784251         1.230372
 H         2.014008        -2.080746        -0.463171
 H         5.320059        -0.058284         0.425110
 H         5.155262         0.394950        -1.302029
 H         4.982618         2.539223         0.901529
 H         4.346184         2.568665        -0.852674
 H         2.777452         0.419747         2.115826
