19
Iteration:  3722charge 0 multiplicity 1
 C         0.007680        -0.043677         0.118424
 C         1.495564         0.090851         0.061285
 C         2.295866        -1.218743         0.325589
 C         3.236719        -0.064817        -0.095241
 C         4.559651         0.479027        -0.216549
 C         4.422871         1.996791         0.081929
 O         3.008732         2.172103         0.738442
 C         2.458354         0.936341         0.887100
 O         2.248625         0.217388        -1.243438
 H        -0.213834        -0.503798         1.105864
 H        -0.625112         0.779970        -0.117419
 H        -0.170824        -0.817464        -0.600747
 H         2.439893        -1.531969         1.345074
 H         2.055474        -1.997802        -0.301481
 H         5.368346        -0.126821         0.288204
 H         4.824342         0.298654        -1.356256
 H         5.235848         2.389768         0.659628
 H         4.324014         2.575094        -0.860206
 H         2.445456         0.654172         1.996626
