19
Iteration:  4370charge 0 multiplicity 1
 C        -0.050823         0.012458        -0.051404
 C         1.484150         0.009586         0.054758
 C         2.367591        -1.237823         0.454336
 C         3.292151        -0.072274        -0.006708
 C         4.585670         0.504248        -0.299302
 C         4.277818         1.983485        -0.055086
 O         3.034371         2.154097         0.756138
 C         2.466204         0.797604         0.872388
 O         2.302970         0.316775        -1.075684
 H        -0.488191        -0.029718         1.018750
 H        -0.358063         0.952218        -0.584794
 H        -0.291784        -0.872839        -0.755212
 H         2.368126        -1.654282         1.485227
 H         2.185647        -2.074613        -0.163854
 H         5.351727         0.256203         0.367950
 H         4.880327         0.385330        -1.321462
 H         5.008575         2.548341         0.511773
 H         4.018327         2.465287        -1.007255
 H         2.382114         0.578964         1.970880
