19
Iteration:  3519
 C        -0.115770        -0.070470         0.019867
 C         1.418201         0.109004         0.005386
 C         2.305538        -1.182683         0.421858
 C         3.206040        -0.072207        -0.109389
 C         4.625610         0.515439        -0.252555
 C         4.400737         2.065293         0.059495
 O         3.119631         2.078024         0.696377
 C         2.548890         0.878677         0.952165
 O         2.199144         0.237725        -1.184544
 H        -0.357672        -0.292830         1.128064
 H        -0.687358         0.766179        -0.338826
 H        -0.330478        -0.979798        -0.533499
 H         2.435373        -1.391813         1.531741
 H         2.210828        -2.071904        -0.147107
 H         5.342727         0.030759         0.536825
 H         5.020982         0.475260        -1.264560
 H         5.180259         2.489644         0.642595
 H         4.323691         2.626590        -0.885486
 H         2.612502         0.436536         2.005414
