19
Iteration:  1882
 C        -0.059996         0.183184         0.079742
 C         1.466665         0.008500         0.054415
 C         2.522995        -1.350668         0.393682
 C         3.302771        -0.153750        -0.045234
 C         4.506163         0.595849        -0.366240
 C         4.290613         1.995274         0.100316
 O         2.980877         2.098142         0.743598
 C         2.543927         0.793696         0.947761
 O         2.210219         0.275843        -1.232822
 H        -0.458909         0.225684         1.112702
 H        -0.427478         1.160453        -0.323626
 H        -0.651800        -0.415225        -0.664487
 H         2.493201        -1.815555         1.428486
 H         2.313470        -2.167274        -0.402609
 H         5.455499         0.216538         0.099338
 H         4.752246         0.641656        -1.450446
 H         4.958779         2.434559         0.912902
 H         4.502062         2.766823        -0.792814
 H         2.649212         0.153817         1.966773
