19
Iteration:  2655
 C        -0.107543         0.081377        -0.080486
 C         1.459326        -0.045761         0.107769
 C         2.480214        -1.326552         0.407585
 C         3.249078        -0.030592        -0.101623
 C         4.552644         0.535899        -0.268717
 C         4.325588         2.050522        -0.049542
 O         3.083436         2.151710         0.835628
 C         2.537728         0.790808         0.917599
 O         2.172677         0.274350        -1.127390
 H        -0.714638        -0.019068         0.889760
 H        -0.370583         1.016359        -0.577956
 H        -0.577529        -0.712440        -0.605257
 H         2.522801        -1.729549         1.367083
 H         2.420313        -2.205415        -0.336832
 H         5.226661         0.016804         0.487438
 H         5.139892         0.340179        -1.156421
 H         5.099033         2.767104         0.517193
 H         4.074211         2.610970        -1.019785
 H         2.640950         0.485160         1.949454
