19
Iteration:   784charge 0 multiplicity 1
 C        -0.060799         0.041384         0.084819
 C         1.446291        -0.026381         0.026257
 C         2.357873        -1.265341         0.216215
 C         3.240980        -0.114611        -0.059597
 C         4.703520         0.453921        -0.143341
 C         4.316645         2.028975         0.024450
 O         3.054684         2.132009         0.753985
 C         2.492830         0.787988         0.920092
 O         2.203899         0.381123        -1.220425
 H        -0.355850         0.124693         1.139878
 H        -0.396287         0.970915        -0.402605
 H        -0.645022        -0.756301        -0.378450
 H         2.462629        -1.637621         1.229174
 H         2.110785        -2.021546        -0.436213
 H         5.241079         0.177747         0.783709
 H         5.355515         0.456522        -1.021076
 H         5.081029         2.547999         0.656401
 H         4.244261         2.608139        -0.927011
 H         2.320122         0.502079         2.019301
