19
Iteration:  3609
 C         0.063470         0.340490         0.094314
 C         1.527024         0.023043         0.097120
 C         2.334513        -1.327239         0.353237
 C         3.303297        -0.160695        -0.046923
 C         4.563830         0.514991        -0.164134
 C         4.070773         2.098742        -0.255282
 O         2.945995         2.104733         0.825550
 C         2.513436         0.729318         1.019815
 O         2.429376         0.118006        -1.266639
 H        -0.445444        -0.049570         0.975305
 H        -0.049796         1.470436         0.133577
 H        -0.530213        -0.107808        -0.742746
 H         2.272248        -1.764294         1.353776
 H         2.312106        -2.024503        -0.554637
 H         5.262233         0.290629         0.836989
 H         5.137293         0.222880        -1.085368
 H         4.760492         2.882675         0.035877
 H         3.702583         2.427033        -1.188150
 H         2.584734         0.508327         2.147527
