19
Iteration:  4090
 C        -0.037514         0.119891        -0.078848
 C         1.491077        -0.033947         0.073988
 C         2.374845        -1.277367         0.342956
 C         3.276809        -0.072202         0.005041
 C         4.633050         0.537052        -0.371022
 C         4.210056         1.997583        -0.054370
 O         3.013608         2.103658         0.770672
 C         2.485341         0.762674         1.029193
 O         2.324067         0.313012        -1.078164
 H        -0.561170        -0.269874         0.872768
 H        -0.365843         1.159050        -0.241671
 H        -0.432402        -0.489200        -0.908313
 H         2.446429        -1.655166         1.406296
 H         2.240227        -2.178787        -0.214102
 H         5.449795         0.220843         0.399056
 H         4.719036         0.349048        -1.423987
 H         5.011740         2.622951         0.522476
 H         3.939434         2.556917        -0.974472
 H         2.474344         0.665763         2.155270
