19
Iteration:  1073
 C        -0.001243         0.315623         0.023781
 C         1.455857        -0.154945         0.067242
 C         2.489625        -1.352937         0.259601
 C         3.203331        -0.049250        -0.003350
 C         4.615608         0.434862        -0.165039
 C         4.161408         1.903780        -0.212429
 O         2.903034         2.151042         0.733644
 C         2.589444         0.774784         1.068766
 O         2.303762         0.380217        -1.099082
 H        -0.502183        -0.194645         0.842808
 H         0.060383         1.374773         0.213733
 H        -0.565169         0.097046        -0.911031
 H         2.643910        -1.961880         1.090520
 H         2.468370        -1.928007        -0.673492
 H         5.251615         0.256114         0.793531
 H         5.277458         0.145207        -1.111946
 H         4.829311         2.596570         0.308221
 H         3.935041         2.135238        -1.317188
 H         2.642665         0.569845         2.186067
