19
Iteration:  4524charge 0 multiplicity 1
 C        -0.045158         0.048111         0.106435
 C         1.461294        -0.005709         0.023112
 C         2.390635        -1.217654         0.424734
 C         3.268047        -0.025379        -0.047848
 C         4.603555         0.516981        -0.244320
 C         4.314869         1.977508         0.133879
 O         2.965441         2.182405         0.546384
 C         2.488531         0.871568         0.926123
 O         2.288899         0.165579        -1.245150
 H        -0.329203        -0.352047         1.144484
 H        -0.427961         1.097094        -0.028734
 H        -0.382547        -0.736601        -0.634085
 H         2.346645        -1.335011         1.490555
 H         2.320188        -2.121735        -0.239729
 H         5.277329         0.040717         0.480947
 H         4.990807         0.412545        -1.221629
 H         4.947222         2.208615         0.988431
 H         4.425721         2.730054        -0.635582
 H         2.502901         0.558330         1.988872
