19
Iteration:  4335
 C         0.003520         0.105868         0.123104
 C         1.482469        -0.017228         0.164330
 C         2.342750        -1.334678         0.251289
 C         3.308794        -0.116174         0.014771
 C         4.627658         0.536234        -0.168096
 C         4.271319         2.037223         0.059557
 O         2.890671         2.109552         0.382077
 C         2.537021         0.781245         0.910307
 O         2.315745         0.333714        -1.046857
 H        -0.596356        -0.215501         1.023901
 H        -0.401796         1.155333        -0.055446
 H        -0.559612        -0.539399        -0.637382
 H         2.251272        -1.902745         1.193525
 H         2.141201        -1.794546        -0.688265
 H         5.323035         0.160453         0.611869
 H         5.162700         0.407701        -1.167092
 H         4.892609         2.370141         0.886379
 H         4.547565         2.675735        -0.785165
 H         2.577824         0.733062         2.016751
