19
Iteration:   599
 C        -0.067759         0.175455         0.037640
 C         1.493230         0.083677         0.061062
 C         2.466823        -1.376092         0.202368
 C         3.253433        -0.148443        -0.113530
 C         4.622575         0.547477        -0.166615
 C         4.225311         1.977242        -0.121877
 O         2.999722         2.072493         0.857894
 C         2.448405         0.746522         1.020047
 O         2.330796         0.385320        -1.123248
 H        -0.542597         0.295346         1.025742
 H        -0.329024         1.111075        -0.504707
 H        -0.571463        -0.607565        -0.549147
 H         2.829336        -1.794690         1.197911
 H         1.992406        -2.117420        -0.535140
 H         5.216634         0.176013         0.710779
 H         5.172394         0.412997        -1.142253
 H         5.059326         2.636221         0.242567
 H         3.892926         2.293388        -1.164985
 H         2.215686         0.254895         1.975476
