19
Iteration:  4261charge 0 multiplicity 1
 C        -0.050729         0.072063        -0.038295
 C         1.444576        -0.011177         0.081110
 C         2.269705        -1.251076         0.434707
 C         3.309205        -0.113969         0.047330
 C         4.621993         0.586901        -0.381416
 C         4.298417         2.025694         0.083851
 O         2.998146         2.096567         0.628374
 C         2.560637         0.813373         0.949583
 O         2.273582         0.228929        -1.120864
 H        -0.617568        -0.152525         0.920811
 H        -0.356468         1.106653        -0.297653
 H        -0.520685        -0.647871        -0.769192
 H         2.446794        -1.740234         1.473983
 H         2.368139        -1.884303        -0.413749
 H         5.557323         0.368693         0.070421
 H         4.678024         0.433796        -1.419224
 H         5.110605         2.459478         0.813447
 H         4.448312         2.867704        -0.706365
 H         2.613915         0.567267         2.117495
