19
Iteration:  2442charge 0 multiplicity 1
 C        -0.036201         0.163070         0.157313
 C         1.454920        -0.046808         0.139662
 C         2.413807        -1.262020         0.326292
 C         3.244466        -0.143241        -0.159794
 C         4.610183         0.592479        -0.299010
 C         4.263358         2.000136         0.147941
 O         2.932800         2.131108         0.644072
 C         2.572388         0.804041         0.845068
 O         2.285082         0.230129        -1.163450
 H        -0.206615         0.231826         1.219234
 H        -0.272038         1.071529        -0.332759
 H        -0.698473        -0.654982        -0.244765
 H         2.291596        -1.656653         1.325472
 H         2.192505        -2.035726        -0.455463
 H         5.255720         0.008449         0.375434
 H         5.164821         0.406922        -1.233785
 H         5.024380         2.481867         0.870012
 H         4.271556         2.683468        -0.887038
 H         2.736029         0.443257         1.811582
