19
Iteration:  2162
 C        -0.097398        -0.062336        -0.014178
 C         1.420549         0.047706         0.250878
 C         2.438968        -1.243694         0.317255
 C         3.244571        -0.113283        -0.095572
 C         4.647817         0.410045        -0.350941
 C         4.311374         2.013061         0.120505
 O         2.940754         2.151251         0.583377
 C         2.599481         0.894144         0.915942
 O         2.233463         0.365294        -1.046733
 H        -0.445593        -0.397264         0.942487
 H        -0.381070         0.979915        -0.073655
 H        -0.463980        -0.560153        -0.973603
 H         2.551932        -1.664771         1.322950
 H         2.029154        -1.960933        -0.447823
 H         5.603551         0.031180         0.068939
 H         4.775495         0.223838        -1.471907
 H         5.061305         2.332033         0.984205
 H         4.516672         2.750932        -0.677546
 H         2.699419         0.710509         2.046468
