19
Iteration:  2767
 C         0.013664         0.260434         0.065357
 C         1.514294        -0.027004         0.132441
 C         2.297206        -1.339350         0.391372
 C         3.301515        -0.046170        -0.138060
 C         4.636989         0.622971        -0.279584
 C         4.232852         2.098125         0.072244
 O         2.898703         2.023745         0.697394
 C         2.574321         0.721593         0.884377
 O         2.269378         0.161416        -1.178885
 H        -0.406896        -0.188490         0.940020
 H        -0.155425         1.326414         0.008726
 H        -0.484581        -0.253907        -0.812184
 H         2.450944        -1.656239         1.399055
 H         2.273095        -2.070652        -0.350801
 H         5.362782         0.275617         0.519869
 H         5.042301         0.525511        -1.338966
 H         4.990888         2.609599         0.727082
 H         4.231785         2.686229        -0.808373
 H         2.674104         0.340858         1.911563
