19
Iteration:  3676charge 0 multiplicity 1
 C         0.033372         0.032688        -0.094127
 C         1.442473         0.050520         0.212218
 C         2.381993        -1.308145         0.309325
 C         3.218277        -0.088143        -0.033927
 C         4.634632         0.480972        -0.266844
 C         4.296085         2.014643        -0.064522
 O         3.022252         2.130471         0.628492
 C         2.562569         0.830507         1.071749
 O         2.149085         0.363069        -1.011961
 H        -0.609213         0.090796         0.735256
 H        -0.215924         0.922750        -0.753223
 H        -0.314606        -0.851837        -0.692023
 H         2.583789        -1.888329         1.216139
 H         2.177821        -1.978986        -0.597662
 H         5.418359        -0.113800         0.424933
 H         5.145808         0.259238        -1.290501
 H         5.004326         2.685906         0.404123
 H         4.152286         2.328020        -1.061935
 H         2.601807         0.553558         2.186729
