19
Iteration:  1733charge 0 multiplicity 1
 C         0.044833         0.314810        -0.041049
 C         1.441472         0.008564         0.199259
 C         2.510605        -1.376108         0.234933
 C         3.279700        -0.181538        -0.072585
 C         4.590841         0.627004        -0.320930
 C         4.137929         1.992622        -0.082964
 O         2.956402         2.081113         0.773604
 C         2.573730         0.707943         1.016814
 O         2.214208         0.280884        -1.034042
 H        -0.604346         0.172598         0.915903
 H         0.001608         1.346155        -0.546068
 H        -0.351597        -0.476266        -0.707256
 H         2.603361        -1.970287         1.246140
 H         2.095766        -1.983555        -0.573305
 H         5.303930         0.231361         0.467024
 H         5.085489         0.372452        -1.332542
 H         5.119318         2.441642         0.414478
 H         3.935742         2.640939        -0.975980
 H         2.651034         0.363998         2.098426
