19
Iteration:  2290charge 0 multiplicity 1
 C         0.035137         0.181584         0.031605
 C         1.478951        -0.036464         0.190536
 C         2.367547        -1.317349         0.264623
 C         3.283061        -0.103116        -0.084972
 C         4.590820         0.557283        -0.259222
 C         4.220886         2.026561        -0.063432
 O         2.975136         2.111173         0.747027
 C         2.583092         0.774996         0.905878
 O         2.209053         0.280941        -1.093396
 H        -0.434387         0.161650         1.044337
 H        -0.100626         1.197142        -0.342611
 H        -0.484164        -0.667594        -0.600851
 H         2.488230        -1.718723         1.302639
 H         2.307214        -2.209170        -0.474433
 H         5.115137         0.137254         0.644200
 H         5.059793         0.398195        -1.240079
 H         5.028807         2.526420         0.436237
 H         4.059614         2.377168        -1.080782
 H         2.818884         0.575429         2.068031
