19
Iteration:  2111
 C        -0.097970         0.226059         0.140831
 C         1.444748        -0.011619         0.088386
 C         2.453829        -1.344710         0.285473
 C         3.296846        -0.119129        -0.096061
 C         4.682962         0.530606        -0.290874
 C         4.245185         2.027982         0.065895
 O         2.914184         2.222438         0.786330
 C         2.556983         0.746897         0.903810
 O         2.249379         0.202552        -1.225455
 H        -0.452310         0.001508         1.196265
 H        -0.292805         1.261042        -0.293422
 H        -0.435755        -0.583063        -0.471258
 H         2.621164        -1.654681         1.334570
 H         2.328030        -2.147854        -0.349633
 H         5.433302         0.010053         0.328303
 H         5.155878         0.325937        -1.262787
 H         4.984622         2.568033         0.517961
 H         4.082344         2.352813        -1.069431
 H         2.486300         0.448716         1.958607
