19
Iteration:  3452
 C         0.019395         0.222426         0.074731
 C         1.445000        -0.076698         0.136633
 C         2.290180        -1.358085         0.342015
 C         3.338211        -0.132500        -0.031053
 C         4.746055         0.473771        -0.335478
 C         4.259822         2.096282         0.053445
 O         2.787762         2.074221         0.521378
 C         2.559446         0.761143         0.980880
 O         2.369117         0.341594        -1.090672
 H        -0.498611         0.055629         1.048207
 H        -0.136277         1.288300        -0.161049
 H        -0.585167        -0.334028        -0.639148
 H         2.131975        -1.607558         1.429964
 H         2.147472        -2.253000        -0.286011
 H         5.608069         0.065633         0.309125
 H         4.868557         0.372463        -1.459212
 H         4.762977         2.424819         0.892750
 H         4.309783         2.819768        -0.798166
 H         2.508106         0.727221         2.144735
