19
Iteration:  3898charge 0 multiplicity 1
 C        -0.049042        -0.039022        -0.007374
 C         1.407585         0.014705         0.025787
 C         2.292509        -1.202722         0.241913
 C         3.356585        -0.131497         0.074731
 C         4.653627         0.481851        -0.148014
 C         4.172470         1.968243        -0.161259
 O         3.031232         2.079955         0.648803
 C         2.516941         0.754171         1.041036
 O         2.370080         0.524705        -1.028633
 H        -0.452492        -0.414139         0.937482
 H        -0.421933         0.950535        -0.134027
 H        -0.371778        -0.670615        -0.781717
 H         2.233445        -1.653446         1.259143
 H         2.030014        -1.997854        -0.491640
 H         5.403922         0.277224         0.651655
 H         5.038922         0.253585        -1.249473
 H         4.810627         2.660147         0.255557
 H         3.945737         2.134068        -1.251513
 H         2.683848         0.697669         2.117608
