19
Iteration:  2511charge 0 multiplicity 1
 C        -0.072520        -0.008962         0.057781
 C         1.475636         0.069768         0.102931
 C         2.281455        -1.214499         0.357932
 C         3.316016        -0.056961        -0.006244
 C         4.555572         0.466862        -0.398582
 C         4.351542         2.025514         0.015551
 O         2.981971         2.104478         0.728733
 C         2.506064         0.839480         0.902513
 O         2.328546         0.277250        -1.100512
 H        -0.306297        -0.499450         1.025641
 H        -0.591381         1.002784        -0.054922
 H        -0.465038        -0.693759        -0.704816
 H         2.320380        -1.734701         1.321756
 H         2.283807        -1.932217        -0.411293
 H         5.438105         0.113416         0.163436
 H         4.946917         0.461088        -1.451458
 H         5.231830         2.424984         0.702738
 H         4.215462         2.775561        -0.903747
 H         2.516000         0.575606         1.914255
