19
Iteration:  2356
 C         0.014959         0.136072        -0.059322
 C         1.448871        -0.029274         0.140087
 C         2.344060        -1.288509         0.307000
 C         3.279268        -0.109907         0.004101
 C         4.628900         0.480673        -0.284840
 C         4.193310         2.046560        -0.171969
 O         3.084585         2.082652         0.774465
 C         2.619868         0.805127         0.989341
 O         2.160456         0.346940        -1.019601
 H        -0.428053        -0.468157         0.733527
 H        -0.533091         1.072705        -0.016618
 H        -0.076798        -0.364707        -1.120379
 H         2.415500        -1.677447         1.310921
 H         2.360936        -1.983108        -0.536194
 H         5.273887         0.362603         0.604420
 H         5.142888         0.092657        -1.208630
 H         4.734260         2.964949         0.125415
 H         3.715210         2.231401        -1.146011
 H         2.648401         0.461416         2.125650
