19
Iteration:  2033charge 0 multiplicity 1
 C         0.005808         0.145812        -0.003490
 C         1.508096         0.041660         0.094194
 C         2.397421        -1.336050         0.285031
 C         3.279133        -0.123453         0.066414
 C         4.586535         0.537739        -0.316266
 C         4.094203         2.005295        -0.244785
 O         3.041556         2.017884         0.814164
 C         2.500977         0.766244         1.078698
 O         2.337628         0.416917        -1.088100
 H        -0.528307        -0.373328         0.828920
 H        -0.242924         1.227902        -0.050643
 H        -0.281798        -0.495343        -0.898680
 H         2.302236        -1.775609         1.327962
 H         2.320873        -2.074094        -0.560192
 H         5.375283         0.382683         0.471314
 H         4.788259         0.259330        -1.395660
 H         4.893425         2.521806         0.273810
 H         3.782295         2.537109        -1.227573
 H         2.586077         0.440804         2.138206
