19
Iteration:  2765charge 0 multiplicity 1
 C         0.018065         0.255230         0.069065
 C         1.513901        -0.026312         0.113679
 C         2.307667        -1.341341         0.410398
 C         3.289695        -0.049722        -0.145742
 C         4.625985         0.618915        -0.295597
 C         4.245683         2.096581         0.091709
 O         2.906555         2.030849         0.688965
 C         2.572997         0.717821         0.882071
 O         2.263545         0.159248        -1.176962
 H        -0.461681        -0.175692         0.973930
 H        -0.148295         1.310051         0.022635
 H        -0.415152        -0.206506        -0.805156
 H         2.421675        -1.642781         1.421663
 H         2.282885        -2.045088        -0.433690
 H         5.291514         0.302782         0.570303
 H         5.144746         0.573293        -1.279978
 H         4.944553         2.578757         0.700281
 H         4.166296         2.732370        -0.815843
 H         2.682846         0.320871         1.975655
