19
Iteration:  1899
 C         0.029675         0.221429         0.076585
 C         1.476109        -0.016178         0.143472
 C         2.406289        -1.276683         0.324957
 C         3.255905        -0.050396        -0.214722
 C         4.619154         0.559501        -0.379713
 C         4.272225         2.054737         0.173447
 O         2.913349         2.076809         0.709263
 C         2.576883         0.718782         0.928040
 O         2.188287         0.180495        -1.140364
 H        -0.431479         0.263545         1.058550
 H        -0.123433         1.151879        -0.450101
 H        -0.500312        -0.593625        -0.494963
 H         2.708141        -1.512719         1.334619
 H         2.288861        -2.125247        -0.342189
 H         5.395651         0.036927         0.207081
 H         5.033240         0.540981        -1.374725
 H         4.989166         2.258361         0.973470
 H         4.231437         2.787930        -0.545499
 H         2.663114         0.587947         1.936477
