19
Iteration:  2533charge 0 multiplicity 1
 C        -0.020216         0.067385         0.046433
 C         1.448713         0.002538         0.107377
 C         2.362020        -1.284845         0.330335
 C         3.257241        -0.094563        -0.069517
 C         4.632664         0.534874        -0.237485
 C         4.285348         2.047139        -0.032583
 O         3.044185         2.123760         0.761822
 C         2.520011         0.798415         0.967136
 O         2.216432         0.260804        -1.230141
 H        -0.300854        -0.546055         0.934777
 H        -0.330012         1.152441         0.173941
 H        -0.489562        -0.378478        -0.812166
 H         2.312000        -1.382840         1.407098
 H         2.054517        -2.206018        -0.082448
 H         5.450228         0.198650         0.442703
 H         4.970919         0.327644        -1.295739
 H         5.200017         2.616719         0.449443
 H         3.997795         2.652767        -1.008578
 H         2.658648         0.612347         1.973888
