19
Iteration:  4636charge 0 multiplicity 1
 C         0.016492         0.149948         0.180519
 C         1.484817        -0.039136        -0.004930
 C         2.318043        -1.337080         0.371299
 C         3.268499        -0.153195         0.000923
 C         4.683722         0.508064        -0.141191
 C         4.280996         2.052812         0.076434
 O         2.846138         2.163938         0.540534
 C         2.517762         0.867704         0.882132
 O         2.347959         0.210292        -1.257213
 H        -0.305419        -0.053580         1.235529
 H        -0.285759         1.268406        -0.007459
 H        -0.672390        -0.454178        -0.480051
 H         2.314175        -1.656549         1.433415
 H         2.353363        -2.163335        -0.359754
 H         5.324674         0.212823         0.630501
 H         5.078314         0.573179        -1.123326
 H         5.034699         2.478510         0.681470
 H         4.281429         2.573874        -0.909533
 H         2.449003         0.692144         2.003837
