19
Iteration:  1310
 C         0.019589         0.049339        -0.032628
 C         1.445493         0.019198         0.033445
 C         2.275356        -1.212486         0.198573
 C         3.325527        -0.166743         0.134812
 C         4.555923         0.537625        -0.280270
 C         4.177836         1.967916        -0.141308
 O         3.080383         2.134070         0.836051
 C         2.556410         0.824241         1.025321
 O         2.318793         0.335740        -1.102902
 H        -0.296733        -0.409147         0.926646
 H        -0.263017         1.117580        -0.127435
 H        -0.485698        -0.589745        -0.787001
 H         2.297451        -1.623791         1.187166
 H         2.325022        -2.055077        -0.501211
 H         5.397294         0.241691         0.314748
 H         4.842941         0.203063        -1.217733
 H         5.044845         2.601192         0.270865
 H         3.747368         2.253241        -1.097990
 H         2.259754         0.572920         2.087348
