19
Iteration:  4159
 C         0.028597         0.270481         0.135047
 C         1.520907         0.022214        -0.037016
 C         2.429143        -1.326884         0.297996
 C         3.249429        -0.124747         0.045625
 C         4.621296         0.543443        -0.159217
 C         4.083234         2.027495        -0.110768
 O         2.944263         2.088060         0.795462
 C         2.507117         0.763018         0.940428
 O         2.371339         0.225192        -1.271129
 H        -0.173222        -0.168905         1.135806
 H        -0.269361         1.395374         0.160797
 H        -0.605099        -0.321731        -0.606431
 H         2.531468        -1.621518         1.303392
 H         2.282689        -2.268170        -0.310189
 H         5.120757         0.273874         0.652601
 H         5.110007         0.276692        -1.131575
 H         4.956320         2.679572         0.223637
 H         3.922367         2.225651        -1.177359
 H         2.323827         0.468096         2.044119
