19
Iteration:  4353charge 0 multiplicity 1
 C        -0.011799         0.024873         0.019055
 C         1.461162         0.064935         0.123375
 C         2.255787        -1.248822         0.279494
 C         3.270957        -0.110683         0.019816
 C         4.666703         0.481004        -0.266498
 C         4.251466         2.026209         0.006468
 O         2.879313         2.119251         0.581754
 C         2.582324         0.895431         1.060208
 O         2.350125         0.269366        -1.118634
 H        -0.265067        -0.183137         1.017240
 H        -0.357172         0.984662        -0.379474
 H        -0.208577        -0.838753        -0.579217
 H         2.345306        -1.696338         1.274900
 H         2.213904        -2.059653        -0.562984
 H         5.461844         0.014927         0.443381
 H         4.920011         0.194078        -1.351647
 H         5.035971         2.531290         0.649884
 H         4.273053         2.632352        -0.910277
 H         2.708740         0.664560         2.117674
