19
Iteration:  3941charge 0 multiplicity 1
 C        -0.085517         0.264142        -0.078584
 C         1.456588        -0.097264         0.087472
 C         2.415439        -1.331251         0.407240
 C         3.323324        -0.071058        -0.063701
 C         4.625009         0.592538        -0.224379
 C         4.185220         2.126731        -0.001918
 O         3.044614         2.069134         0.776586
 C         2.589524         0.760105         0.916836
 O         2.220312         0.131462        -1.156712
 H        -0.786819        -0.129802         0.694728
 H        -0.114063         1.331382         0.071835
 H        -0.420290        -0.036037        -1.038198
 H         2.554397        -1.508123         1.517147
 H         2.382550        -2.188225        -0.337121
 H         5.301486         0.174218         0.527191
 H         5.159386         0.473525        -1.269049
 H         4.928543         2.744872         0.438549
 H         3.736862         2.563203        -0.946250
 H         2.429563         0.480882         1.943181
