19
Iteration:  1499charge 0 multiplicity 1
 C        -0.024514         0.071808         0.062440
 C         1.459798         0.086118         0.053231
 C         2.296652        -1.292065         0.206013
 C         3.244227        -0.093099        -0.016429
 C         4.667959         0.514336        -0.247451
 C         4.238461         1.998973        -0.099071
 O         2.969018         2.062699         0.738210
 C         2.496489         0.769461         1.065451
 O         2.397313         0.362819        -1.098113
 H        -0.315283        -0.273600         1.083441
 H        -0.586739         1.022409        -0.067089
 H        -0.434901        -0.739338        -0.583331
 H         2.370852        -1.744243         1.215092
 H         2.201540        -1.996506        -0.567168
 H         5.459818         0.153869         0.330611
 H         5.015665         0.293272        -1.269439
 H         5.030145         2.710938         0.262675
 H         3.883343         2.539597        -1.049854
 H         2.492782         0.614335         2.149859
