19
Iteration:  3535charge 0 multiplicity 1
 C         0.003129        -0.069792         0.044158
 C         1.452830         0.065771         0.216115
 C         2.256842        -1.215922         0.354815
 C         3.218143        -0.035988        -0.041154
 C         4.609236         0.444371        -0.328565
 C         4.348576         1.963393        -0.020029
 O         3.037376         2.212301         0.753012
 C         2.477718         0.885618         0.910747
 O         2.320895         0.265730        -1.195493
 H        -0.484357        -0.365867         0.922656
 H        -0.443920         0.872488        -0.385068
 H        -0.093632        -0.899521        -0.699274
 H         2.314154        -1.652450         1.312756
 H         1.981563        -1.915110        -0.494163
 H         5.303031         0.003729         0.393363
 H         4.965949         0.107225        -1.332023
 H         5.122526         2.443745         0.673763
 H         4.299957         2.624850        -0.898570
 H         2.430009         0.743565         1.988700
