19
Iteration:  3255charge 0 multiplicity 1
 C        -0.023640         0.234862         0.073571
 C         1.439449        -0.105721         0.109262
 C         2.352338        -1.321240         0.371164
 C         3.302814        -0.116764         0.081450
 C         4.665761         0.551154        -0.348971
 C         4.264760         2.046487         0.017146
 O         2.925117         2.040018         0.601600
 C         2.472005         0.738067         0.919643
 O         2.366072         0.318014        -1.109556
 H        -0.484291        -0.044193         0.975173
 H        -0.189130         1.343091        -0.082762
 H        -0.556161        -0.338020        -0.730164
 H         2.306359        -1.856735         1.244821
 H         2.169711        -2.030843        -0.475258
 H         5.654852         0.431224         0.152761
 H         4.711124         0.403355        -1.505149
 H         4.888695         2.618490         0.733248
 H         4.209553         2.844933        -0.832403
 H         2.474219         0.622479         2.002383
