19
Iteration:  1260charge 0 multiplicity 1
 C        -0.025045         0.195802        -0.039677
 C         1.491072        -0.012362         0.100307
 C         2.471421        -1.346338         0.326703
 C         3.256986        -0.080564        -0.064493
 C         4.625472         0.482244        -0.176029
 C         4.225148         2.027489        -0.096230
 O         2.991572         2.124743         0.731996
 C         2.562997         0.769983         0.995481
 O         2.151957         0.318987        -1.100747
 H        -0.654698        -0.350592         0.691001
 H        -0.188865         1.294125         0.014206
 H        -0.383078        -0.140219        -1.025489
 H         2.533513        -1.889810         1.336329
 H         2.488884        -2.129077        -0.421887
 H         5.253521         0.191368         0.710284
 H         5.220219         0.297793        -1.180465
 H         4.979372         2.535600         0.416139
 H         3.937954         2.370406        -1.128081
 H         2.738463         0.341769         1.972494
