19
Iteration:  4772charge 0 multiplicity 1
 C        -0.059201         0.153132        -0.040116
 C         1.475272        -0.046890         0.096096
 C         2.511487        -1.347530         0.338137
 C         3.238086        -0.060604         0.009916
 C         4.644822         0.428192        -0.185892
 C         4.232558         1.990785        -0.082057
 O         2.951170         2.206606         0.649847
 C         2.519657         0.852815         0.974006
 O         2.252103         0.263323        -1.064194
 H        -0.566451         0.181255         0.930483
 H        -0.209758         1.029742        -0.617550
 H        -0.467471        -0.650443        -0.687693
 H         2.428488        -1.811356         1.303119
 H         2.429169        -2.100059        -0.501269
 H         5.259828         0.094879         0.732554
 H         5.203228         0.182418        -1.119057
 H         5.019284         2.763791         0.284731
 H         3.927843         2.389619        -1.046788
 H         2.493435         0.816332         2.066833
