19
Iteration:   326
 C        -0.107344         0.040763         0.053766
 C         1.465532         0.033755         0.114006
 C         2.300446        -1.278573         0.224933
 C         3.272183        -0.078214        -0.131722
 C         4.731416         0.507948        -0.068448
 C         4.261638         1.914720        -0.097940
 O         2.948476         2.100470         0.733421
 C         2.578650         0.751847         0.964055
 O         2.285768         0.457300        -1.151769
 H        -0.467108        -0.548900         0.927155
 H        -0.559668         1.018032         0.300809
 H        -0.492883        -0.432727        -0.892776
 H         2.443639        -1.918220         1.085190
 H         2.194083        -1.796940        -0.744096
 H         5.223432         0.297214         0.890650
 H         5.578328         0.360780        -0.808850
 H         4.989523         2.540465         0.344540
 H         4.097492         2.345005        -1.121071
 H         2.736024         0.562465         2.040263
