19
Iteration:  4074charge 0 multiplicity 1
 C        -0.110445         0.001815         0.023187
 C         1.369401         0.007665        -0.016254
 C         2.335242        -1.250517         0.411855
 C         3.272252        -0.074987         0.010662
 C         4.608765         0.554895        -0.254208
 C         4.315807         2.047205        -0.070968
 O         3.081904         2.082315         0.886536
 C         2.519210         0.834810         0.918178
 O         2.328024         0.269510        -1.221484
 H        -0.412664        -0.232865         0.973881
 H        -0.400618         1.021913        -0.243860
 H        -0.564896        -0.660365        -0.712464
 H         2.279782        -1.550027         1.440505
 H         2.418211        -1.981773        -0.456870
 H         5.525382         0.114546         0.210140
 H         4.998346         0.474364        -1.316015
 H         4.992082         2.746510         0.357956
 H         4.017125         2.605193        -0.997294
 H         2.392764         0.434226         1.873330
