19
Iteration:  2119charge 0 multiplicity 1
 C        -0.045806         0.144659         0.157401
 C         1.477970        -0.027460         0.055976
 C         2.373696        -1.290318         0.297878
 C         3.299123        -0.153272        -0.099798
 C         4.616170         0.500335        -0.290422
 C         4.279588         2.064994         0.018744
 O         2.947767         2.166836         0.749560
 C         2.497409         0.813387         0.932816
 O         2.293299         0.211925        -1.177747
 H        -0.417517         0.072318         1.171904
 H        -0.382497         1.107952        -0.211658
 H        -0.538634        -0.467203        -0.632059
 H         2.603148        -1.662748         1.259356
 H         2.284177        -2.075813        -0.465629
 H         5.366648         0.012594         0.364107
 H         4.934072         0.580935        -1.371231
 H         5.061605         2.562974         0.693293
 H         4.241479         2.766065        -0.858072
 H         2.534180         0.464067         2.061828
