19
Iteration:  2684charge 0 multiplicity 1
 C        -0.033234        -0.074710         0.010443
 C         1.538910         0.055177         0.122999
 C         2.260634        -1.226841         0.298251
 C         3.320308        -0.072753        -0.010924
 C         4.593935         0.500326        -0.298909
 C         4.333193         2.010762         0.031288
 O         2.980800         2.113688         0.647738
 C         2.525620         0.825615         0.996484
 O         2.286698         0.369402        -1.108236
 H        -0.465737        -0.230617         0.983723
 H        -0.578248         0.841817        -0.335096
 H        -0.320200        -0.914721        -0.663561
 H         2.118020        -1.727023         1.338300
 H         2.098051        -1.938104        -0.525756
 H         5.317812        -0.060703         0.283117
 H         4.887198         0.473472        -1.352989
 H         4.935585         2.496680         0.683100
 H         4.215984         2.470466        -0.983726
 H         2.567473         0.707901         2.179621
