19
Iteration:   336charge 0 multiplicity 1
 C        -0.012662         0.119135         0.070772
 C         1.465008        -0.016335         0.123875
 C         2.272555        -1.333771         0.199445
 C         3.256634        -0.104503        -0.137884
 C         4.684332         0.524567        -0.061246
 C         4.294443         2.102097        -0.088866
 O         2.987757         2.088724         0.739714
 C         2.578756         0.711604         0.930616
 O         2.262978         0.386916        -1.150019
 H        -0.374072        -0.602378         0.811633
 H        -0.266962         1.176954         0.242933
 H        -0.440602        -0.272701        -0.892483
 H         2.360806        -1.839038         1.171189
 H         2.115115        -2.081128        -0.565460
 H         4.807014         0.159503         0.909589
 H         5.476909         0.186920        -0.785136
 H         4.938157         2.795367         0.330025
 H         3.907759         2.440101        -1.070474
 H         2.521509         0.449961         2.003762
