19
Iteration:  4041
 C        -0.007826        -0.048296         0.063827
 C         1.482052         0.075898         0.092589
 C         2.337016        -1.214778         0.298886
 C         3.213107        -0.099872        -0.177050
 C         4.616639         0.501945        -0.122580
 C         4.348462         1.995409        -0.055154
 O         3.048416         2.158319         0.831789
 C         2.537193         0.855734         0.930134
 O         2.193808         0.285665        -1.228801
 H        -0.430908        -0.093386         1.002464
 H        -0.431387         0.814627        -0.456545
 H        -0.245688        -0.945141        -0.487568
 H         2.477913        -1.768939         1.177586
 H         2.152693        -1.992135        -0.518505
 H         4.940877         0.193199         0.891525
 H         5.368036         0.335914        -0.990795
 H         4.944844         2.606380         0.512757
 H         4.036491         2.431729        -1.050220
 H         2.515871         0.580156         1.936077
