19
Iteration:  2022charge 0 multiplicity 1
 C         0.051160         0.083688        -0.035796
 C         1.464538        -0.053406         0.041074
 C         2.356248        -1.334915         0.355943
 C         3.236636        -0.086656        -0.019245
 C         4.528788         0.526669        -0.309304
 C         4.168215         2.008315        -0.152042
 O         3.064477         2.108959         0.850761
 C         2.599720         0.764159         0.963592
 O         2.261349         0.410813        -1.032939
 H        -0.392726        -0.359258         0.878319
 H        -0.261812         1.155833        -0.010162
 H        -0.437677        -0.167644        -1.040796
 H         2.607234        -1.848851         1.339070
 H         2.315449        -2.101093        -0.492457
 H         5.301917         0.145730         0.426504
 H         5.036668         0.254005        -1.301042
 H         4.915802         2.735572         0.159288
 H         3.807450         2.431677        -1.185834
 H         2.555285         0.598380         2.055241
