19
Iteration:  2781charge 0 multiplicity 1
 C         0.000788         0.216960         0.056755
 C         1.428126        -0.044735         0.091338
 C         2.363720        -1.303812         0.268899
 C         3.327512        -0.203381        -0.003160
 C         4.692426         0.581097        -0.275915
 C         4.192987         2.063954        -0.016854
 O         2.892421         2.125139         0.717335
 C         2.555640         0.723625         0.984418
 O         2.341452         0.239901        -1.145216
 H        -0.465887         0.071389         1.027330
 H        -0.212653         1.325469        -0.077550
 H        -0.515655        -0.369289        -0.766382
 H         2.412142        -1.631618         1.356777
 H         1.996505        -2.105623        -0.389318
 H         5.647997         0.167931        -0.017071
 H         4.720974         0.527765        -1.396383
 H         4.855415         2.608841         0.796615
 H         3.953289         2.634030        -0.921297
 H         2.657443         0.571883         2.002373
