19
Iteration:   566charge 0 multiplicity 1
 C         0.042398         0.286056        -0.051041
 C         1.517677         0.002303         0.035378
 C         2.206734        -1.402688         0.319144
 C         3.335444        -0.127988        -0.019021
 C         4.649877         0.609793        -0.310823
 C         4.227900         2.185604        -0.029289
 O         2.923131         2.037312         0.854524
 C         2.620467         0.643881         1.019989
 O         2.282804         0.212063        -1.136327
 H        -0.456922         0.126119         0.913449
 H         0.030914         1.340913        -0.358058
 H        -0.467109        -0.303355        -0.842578
 H         2.206436        -1.929811         1.317323
 H         1.892310        -2.214739        -0.444711
 H         5.526488         0.287051         0.251928
 H         4.899794         0.664409        -1.415631
 H         4.905001         2.904252         0.499092
 H         3.847618         2.611568        -1.010083
 H         2.640206         0.205024         2.067515
