19
Iteration:  2357charge 0 multiplicity 1
 C         0.015904         0.136042        -0.060302
 C         1.450566        -0.030350         0.144267
 C         2.347834        -1.278323         0.303189
 C         3.275596        -0.114547         0.001240
 C         4.633770         0.487061        -0.270676
 C         4.188283         2.042000        -0.175720
 O         3.079903         2.078970         0.763951
 C         2.623939         0.800964         0.982539
 O         2.155243         0.350652        -1.015642
 H        -0.446289        -0.475477         0.726601
 H        -0.522255         1.105516        -0.013524
 H        -0.071980        -0.370494        -1.129406
 H         2.461744        -1.699980         1.349783
 H         2.338264        -1.965641        -0.515719
 H         5.276787         0.352089         0.620015
 H         5.126357         0.116255        -1.237270
 H         4.786955         2.932217         0.126051
 H         3.724564         2.249540        -1.095251
 H         2.656719         0.422713         2.143258
