19
Iteration:   953charge 0 multiplicity 1
 C        -0.029164         0.010040         0.016589
 C         1.425740         0.088163         0.138715
 C         2.238393        -1.255620         0.270778
 C         3.275971        -0.092182         0.017848
 C         4.657151         0.489721        -0.206378
 C         4.346425         2.034556        -0.075550
 O         2.966718         2.067437         0.645748
 C         2.568309         0.778996         0.964053
 O         2.308573         0.398263        -1.092329
 H        -0.486301        -0.196406         0.972005
 H        -0.487989         0.882676        -0.435424
 H        -0.148683        -0.891763        -0.623079
 H         2.251649        -1.890181         1.153910
 H         1.890800        -1.912454        -0.619244
 H         5.231320         0.119466         0.625387
 H         5.049925         0.205952        -1.216901
 H         5.117261         2.421275         0.660107
 H         4.266426         2.827964        -0.900791
 H         2.641583         0.398531         2.050784
