19
Iteration:  1866charge 0 multiplicity 1
 C        -0.042507         0.149765         0.056811
 C         1.439964        -0.027764         0.047786
 C         2.398021        -1.318818         0.279260
 C         3.268483        -0.095173        -0.005317
 C         4.626417         0.546838        -0.426449
 C         4.305276         2.052532         0.078747
 O         3.001335         2.094610         0.734801
 C         2.457665         0.801846         0.960014
 O         2.267498         0.270546        -1.081355
 H        -0.270984        -0.144220         1.087847
 H        -0.311065         1.194952        -0.115116
 H        -0.464851        -0.574018        -0.662799
 H         2.576978        -1.703325         1.290335
 H         2.451698        -2.107802        -0.448491
 H         5.436809         0.028406         0.108534
 H         4.593679         0.401050        -1.497158
 H         5.182658         2.468617         0.588969
 H         4.254679         2.744665        -0.673781
 H         2.330517         0.590719         2.011751
