19
Iteration:  1540
 C         0.020533         0.298062         0.013155
 C         1.520085        -0.057200         0.140493
 C         2.463486        -1.339356         0.235047
 C         3.212224        -0.049237        -0.147185
 C         4.568006         0.564945        -0.188611
 C         4.156476         1.998126        -0.142923
 O         3.003834         2.065458         0.811873
 C         2.549850         0.706319         1.062325
 O         2.228857         0.269738        -1.127344
 H        -0.301211         0.221379         1.070048
 H         0.150796         1.267202        -0.527458
 H        -0.343751        -0.531428        -0.587666
 H         2.483821        -1.861488         1.244937
 H         2.391583        -2.056333        -0.533275
 H         4.968938         0.211819         0.842289
 H         5.224706         0.390511        -1.168554
 H         4.824297         2.855002         0.234642
 H         3.903139         2.419979        -1.225914
 H         2.606545         0.309820         2.068709
