19
Iteration:   113charge 0 multiplicity 1
 C         0.006211         0.074624        -0.162903
 C         1.441731         0.096244         0.115019
 C         2.269470        -1.273015         0.399220
 C         3.282582        -0.116316        -0.023018
 C         4.559766         0.517601        -0.421245
 C         4.158091         2.084682        -0.046953
 O         3.106254         2.095104         0.869120
 C         2.576141         0.783764         0.989812
 O         2.311492         0.269367        -1.048565
 H        -0.288081        -0.511099         0.744125
 H        -0.516474         1.051875        -0.220070
 H        -0.063072        -0.499002        -1.136613
 H         2.318444        -1.628592         1.453048
 H         2.046031        -2.057578        -0.360659
 H         5.536842         0.196609         0.065154
 H         4.726416         0.239689        -1.436285
 H         5.060666         2.350796         0.514327
 H         3.998044         2.605473        -0.951133
 H         2.496109         0.466367         2.044818
