19
Iteration:  4368
 C        -0.032349         0.009137        -0.046020
 C         1.498484         0.025055         0.065851
 C         2.359717        -1.235935         0.448790
 C         3.289419        -0.071378        -0.004357
 C         4.586588         0.492605        -0.291774
 C         4.284949         1.988061        -0.056401
 O         3.004962         2.164513         0.736076
 C         2.478725         0.782629         0.899258
 O         2.309382         0.314999        -1.084192
 H        -0.486661        -0.031171         1.009962
 H        -0.459277         0.964059        -0.551612
 H        -0.354876        -0.892943        -0.742354
 H         2.302991        -1.691839         1.470778
 H         2.140468        -2.017480        -0.253835
 H         5.422062         0.187798         0.386174
 H         4.919575         0.431236        -1.414110
 H         4.982364         2.513936         0.555225
 H         4.047975         2.453892        -1.012240
 H         2.397536         0.584988         1.975008
