19
Iteration:  3938
 C        -0.078319         0.251665        -0.083043
 C         1.492761        -0.089217         0.092466
 C         2.423042        -1.325907         0.372123
 C         3.299403        -0.070571        -0.029844
 C         4.618385         0.582010        -0.226894
 C         4.174913         2.103974        -0.022386
 O         3.033256         2.097630         0.787548
 C         2.588851         0.762474         0.933077
 O         2.219555         0.129229        -1.160361
 H        -0.794584        -0.184203         0.738674
 H        -0.153045         1.340382         0.079519
 H        -0.466149        -0.068720        -1.090279
 H         2.582453        -1.482696         1.502451
 H         2.278907        -2.053372        -0.370786
 H         5.277073         0.166905         0.492548
 H         5.144198         0.457190        -1.140703
 H         5.068902         2.762012         0.389740
 H         3.835415         2.509601        -0.992508
 H         2.478167         0.393604         1.966238
