19
Iteration:   337
 C         0.001120         0.125234         0.076069
 C         1.458224        -0.020266         0.118689
 C         2.275389        -1.337261         0.194795
 C         3.261635        -0.107165        -0.137449
 C         4.674315         0.526863        -0.065063
 C         4.290008         2.117682        -0.083385
 O         2.994805         2.085227         0.738753
 C         2.575185         0.716765         0.930033
 O         2.260966         0.377111        -1.146205
 H        -0.377311        -0.595740         0.824490
 H        -0.263346         1.179613         0.216208
 H        -0.431142        -0.229117        -0.912884
 H         2.350015        -1.800538         1.182092
 H         2.094077        -2.120012        -0.572050
 H         4.810879         0.159574         0.938664
 H         5.454230         0.167639        -0.790239
 H         4.950559         2.810699         0.360212
 H         3.898930         2.417595        -1.094752
 H         2.516811         0.407892         1.994561
