19
Iteration:   420charge 0 multiplicity 1
 C        -0.000283         0.185776        -0.117259
 C         1.445868        -0.008012         0.207098
 C         2.307055        -1.316922         0.199616
 C         3.285247        -0.146953        -0.089456
 C         4.685981         0.524761        -0.257490
 C         4.177313         2.119296        -0.026970
 O         2.973472         2.066841         0.813988
 C         2.590883         0.722683         1.001495
 O         2.254837         0.307649        -1.033382
 H        -0.616124         0.360913         0.748905
 H        -0.153596         1.147283        -0.639026
 H        -0.340835        -0.687104        -0.638742
 H         2.423330        -1.915863         1.156975
 H         2.147138        -1.973712        -0.616115
 H         5.504440         0.044291         0.244592
 H         5.109816         0.480308        -1.280844
 H         5.077704         2.650214         0.503976
 H         4.067895         2.659696        -0.963703
 H         2.741911         0.325637         2.035233
