19
Iteration:  4531
 C        -0.053091        -0.014877         0.079401
 C         1.468103        -0.009028         0.027764
 C         2.354744        -1.244719         0.386007
 C         3.249218        -0.009796         0.051442
 C         4.540539         0.497083        -0.292333
 C         4.337179         2.032573         0.165270
 O         2.973043         2.171503         0.537336
 C         2.528776         0.940187         0.939375
 O         2.297961         0.177146        -1.223881
 H        -0.389440        -0.236039         1.075619
 H        -0.390239         0.947203        -0.188825
 H        -0.552347        -0.668655        -0.635856
 H         2.469601        -1.595296         1.474609
 H         2.353553        -2.100757        -0.226430
 H         5.361400         0.008667         0.345248
 H         4.971783         0.389347        -1.374114
 H         5.060447         2.160676         0.978888
 H         4.612947         2.596676        -0.729250
 H         2.579820         0.679790         2.004815
