19
Iteration:  4911charge 0 multiplicity 1
 C        -0.042942         0.016595        -0.063427
 C         1.407855        -0.026635         0.067370
 C         2.289265        -1.312335         0.403092
 C         3.285880        -0.084802         0.043744
 C         4.662660         0.506654        -0.274279
 C         4.253049         2.002348        -0.132380
 O         3.043170         2.190068         0.713142
 C         2.478673         0.858297         1.000028
 O         2.372586         0.359828        -1.057878
 H        -0.625363        -0.212006         0.898786
 H        -0.467989         0.887389        -0.588520
 H        -0.333820        -0.880061        -0.756851
 H         2.344968        -1.669246         1.450293
 H         2.161951        -2.252085        -0.231725
 H         5.501283         0.197633         0.310356
 H         4.841947         0.120809        -1.266727
 H         5.116976         2.530907         0.263716
 H         3.982040         2.519189        -1.123621
 H         2.342526         0.500809         2.070447
