19
Iteration:  3983charge 0 multiplicity 1
 C         0.085685         0.237187         0.002998
 C         1.532350        -0.020739         0.118725
 C         2.331943        -1.303252         0.284523
 C         3.268796        -0.160475         0.019166
 C         4.591670         0.510521        -0.311053
 C         4.102539         2.095879         0.040879
 O         2.890757         2.111182         0.669858
 C         2.541218         0.779743         0.997452
 O         2.366163         0.192339        -1.096955
 H        -0.515021        -0.032531         0.960698
 H        -0.097663         1.290602        -0.267489
 H        -0.304458        -0.391506        -0.816716
 H         2.260332        -1.765459         1.316754
 H         2.472860        -1.795856        -0.655659
 H         5.488416         0.214323         0.104395
 H         4.760234         0.376587        -1.403906
 H         4.889615         2.630116         0.703701
 H         4.330152         2.486344        -0.952256
 H         2.674230         0.511636         2.050593
