19
Iteration:  3546charge 0 multiplicity 1
 C        -0.059146        -0.016356        -0.010383
 C         1.444365        -0.014080         0.121692
 C         2.348836        -1.230706         0.346406
 C         3.252816        -0.105763        -0.025372
 C         4.570411         0.417821        -0.273933
 C         4.266551         1.942632        -0.061062
 O         3.012806         2.241291         0.686441
 C         2.576324         0.903090         0.970542
 O         2.323090         0.327121        -1.050654
 H        -0.451521        -0.290913         0.914258
 H        -0.420896         1.026378        -0.254824
 H        -0.399249        -0.761368        -0.790296
 H         2.220102        -1.775503         1.217548
 H         2.162982        -1.851475        -0.590383
 H         5.388390         0.072128         0.378735
 H         4.834991         0.505136        -1.356286
 H         5.196868         2.221141         0.544945
 H         4.263062         2.456411        -1.039129
 H         2.554345         0.603983         2.027839
