19
Iteration:  1873charge 0 multiplicity 1
 C        -0.058498         0.152119         0.074553
 C         1.438638         0.035002         0.004657
 C         2.462530        -1.373863         0.345487
 C         3.265825        -0.088329         0.013919
 C         4.563277         0.551312        -0.365740
 C         4.332968         2.072203         0.053616
 O         2.992480         2.106460         0.757852
 C         2.505666         0.711540         0.906759
 O         2.240640         0.278818        -1.143830
 H        -0.484016        -0.053346         1.091588
 H        -0.198164         1.235866        -0.202767
 H        -0.592940        -0.523384        -0.555496
 H         2.552461        -1.715360         1.372125
 H         2.484164        -2.105979        -0.447033
 H         5.521198         0.144992        -0.049653
 H         4.554703         0.444755        -1.488346
 H         5.105608         2.244435         0.899110
 H         4.243419         2.824333        -0.818643
 H         2.480312         0.670100         2.009771
