19
Iteration:  2528
 C         0.008135         0.047358         0.072122
 C         1.416888         0.033705         0.047286
 C         2.349381        -1.275019         0.374694
 C         3.233517        -0.106948        -0.055314
 C         4.676254         0.562457        -0.288024
 C         4.251198         2.006378        -0.001262
 O         3.061213         2.142462         0.748393
 C         2.543693         0.798834         0.958052
 O         2.234322         0.269365        -1.221493
 H        -0.300081        -0.552425         0.922514
 H        -0.368449         1.035003         0.137190
 H        -0.432842        -0.459427        -0.827906
 H         2.280089        -1.453463         1.485962
 H         2.032337        -2.177534        -0.259785
 H         5.381726         0.148894         0.430468
 H         4.813061         0.363614        -1.341706
 H         5.018146         2.483033         0.514659
 H         4.049816         2.596251        -0.890472
 H         2.575668         0.680267         2.137248
