19
Iteration:  3463charge 0 multiplicity 1
 C        -0.016539         0.187921         0.078370
 C         1.515066         0.031652         0.098595
 C         2.339654        -1.308132         0.334927
 C         3.323768        -0.179898         0.055041
 C         4.645593         0.501367        -0.300961
 C         4.196325         1.987699         0.076054
 O         2.872919         2.093320         0.510284
 C         2.562971         0.792921         0.917022
 O         2.280610         0.320942        -1.087225
 H        -0.492766         0.074117         1.082751
 H        -0.189947         1.197241        -0.311615
 H        -0.380389        -0.532636        -0.653887
 H         2.494845        -1.830932         1.323951
 H         2.284850        -1.972928        -0.522158
 H         5.539097         0.321377         0.377284
 H         5.062231         0.374340        -1.335467
 H         4.840620         2.249033         0.872808
 H         4.323615         2.771245        -0.703664
 H         2.775532         0.609033         2.021249
