19
Iteration:  3625charge 0 multiplicity 1
 C         0.032666         0.340085         0.094836
 C         1.457977        -0.040194        -0.028346
 C         2.310679        -1.300988         0.348604
 C         3.341434        -0.126654         0.060740
 C         4.670250         0.649729        -0.225246
 C         4.028886         1.985548        -0.158732
 O         3.024218         2.015725         0.805192
 C         2.508940         0.763410         0.855268
 O         2.394961         0.150491        -1.124414
 H        -0.333568         0.002926         1.104461
 H        -0.113092         1.403307         0.003365
 H        -0.649126        -0.096350        -0.628093
 H         2.307653        -1.608120         1.416549
 H         2.124540        -2.098471        -0.290337
 H         5.391782         0.597463         0.511224
 H         5.232037         0.448890        -1.158621
 H         4.824559         2.730881         0.128232
 H         3.550223         2.267386        -1.169819
 H         2.279869         0.482023         1.860331
