19
Iteration:   328
 C        -0.099348         0.061089         0.047070
 C         1.481066         0.023673         0.122590
 C         2.286765        -1.288138         0.236539
 C         3.256844        -0.081541        -0.137917
 C         4.729156         0.515361        -0.071672
 C         4.271786         1.934521        -0.104946
 O         2.948347         2.102381         0.739557
 C         2.583270         0.728506         0.954188
 O         2.281141         0.449833        -1.159015
 H        -0.459735        -0.575251         0.906805
 H        -0.470924         1.037117         0.347036
 H        -0.487062        -0.458082        -0.869340
 H         2.438393        -1.947717         1.082441
 H         2.200554        -1.859703        -0.761465
 H         5.155097         0.226068         0.979565
 H         5.581307         0.350462        -0.767952
 H         5.022935         2.667624         0.327523
 H         4.060755         2.442802        -1.099718
 H         2.693421         0.617457         2.047046
