19
Iteration:  1527
 C         0.051589         0.171167         0.033541
 C         1.460036        -0.039646         0.145656
 C         2.297614        -1.293471         0.239109
 C         3.295206        -0.112898        -0.068548
 C         4.640799         0.585474        -0.161796
 C         4.176360         2.086491        -0.157696
 O         2.972903         2.009970         0.785554
 C         2.616966         0.693628         0.970068
 O         2.241671         0.334922        -1.131400
 H        -0.572845         0.333646         0.931567
 H        -0.165144         1.186817        -0.372393
 H        -0.551489        -0.467908        -0.591937
 H         2.543119        -1.685469         1.253894
 H         2.078173        -2.043430        -0.589830
 H         5.360372         0.426027         0.759910
 H         5.339913         0.209912        -1.012246
 H         4.977781         2.687749         0.293719
 H         3.753341         2.408321        -1.140728
 H         2.862288         0.385279         2.033890
