19
Iteration:   528
 C         0.042290         0.305046        -0.056554
 C         1.518505        -0.043886         0.054867
 C         2.459361        -1.355225         0.252107
 C         3.289308        -0.089492         0.045615
 C         4.611140         0.509116        -0.331411
 C         4.253594         2.019426         0.038582
 O         2.851273         2.061910         0.756473
 C         2.541308         0.718378         1.053385
 O         2.226270         0.331157        -1.122872
 H        -0.490470        -0.333182         0.682891
 H        -0.279234         1.370527         0.023566
 H        -0.359279         0.002513        -1.029580
 H         2.696238        -1.562134         1.328467
 H         2.214364        -2.169742        -0.424250
 H         5.463131        -0.000201         0.235575
 H         4.571294         0.287215        -1.426373
 H         5.085628         2.512096         0.639940
 H         4.049452         2.462697        -0.918195
 H         2.741145         0.432708         2.109700
