19
Iteration:   988charge 0 multiplicity 1
 C        -0.070608         0.100695        -0.073260
 C         1.419085         0.004094         0.062004
 C         2.494030        -1.236513         0.353880
 C         3.217424        -0.035360         0.027417
 C         4.645908         0.439631        -0.263098
 C         4.345647         2.000582        -0.035368
 O         3.008526         2.122216         0.814976
 C         2.569375         0.785572         0.950778
 O         2.129460         0.327040        -1.147476
 H        -0.716889         0.191685         0.843415
 H        -0.291076         0.904988        -0.800076
 H        -0.405441        -0.835459        -0.602261
 H         2.577598        -1.594296         1.462225
 H         2.312649        -1.971582        -0.430875
 H         5.395787        -0.073791         0.324511
 H         4.887075         0.079361        -1.327081
 H         5.126018         2.456523         0.637601
 H         4.227788         2.543633        -1.037122
 H         2.747142         0.465117         2.021306
