19
Iteration:  4707charge 0 multiplicity 1
 C         0.037403         0.085834        -0.157238
 C         1.490288         0.027375         0.063368
 C         2.345371        -1.269133         0.438848
 C         3.253542        -0.088022         0.069590
 C         4.540676         0.558300        -0.260918
 C         4.086140         2.010617        -0.238564
 O         3.127750         2.089434         0.842530
 C         2.531355         0.866507         1.046602
 O         2.347791         0.235241        -1.118485
 H        -0.451255        -0.343101         0.701262
 H        -0.307519         1.058337        -0.237943
 H        -0.223422        -0.491655        -1.015758
 H         2.195127        -1.605593         1.454613
 H         2.307377        -2.121494        -0.286525
 H         5.153183         0.247543         0.640986
 H         4.799720         0.206214        -1.276125
 H         4.865613         2.800157         0.082685
 H         3.746365         2.224291        -1.245807
 H         2.422179         0.586789         2.099601
