19
Iteration:  1408charge 0 multiplicity 1
 C        -0.009757         0.177168         0.112874
 C         1.435654         0.000791         0.020765
 C         2.428134        -1.269346         0.289445
 C         3.311450        -0.083623         0.047216
 C         4.586895         0.514042        -0.321146
 C         4.313084         1.990800         0.037268
 O         2.876569         2.045154         0.654732
 C         2.448566         0.780206         0.960798
 O         2.336591         0.316111        -1.116097
 H        -0.436510        -0.116454         1.089250
 H        -0.279796         1.245566         0.089097
 H        -0.578594        -0.331051        -0.673326
 H         2.409745        -1.790954         1.213293
 H         2.566766        -1.947744        -0.565182
 H         5.547487         0.100428         0.076776
 H         4.756006         0.338336        -1.394872
 H         5.215809         2.332669         0.666200
 H         4.337946         2.731724        -0.797072
 H         2.401588         0.388617         1.945060
