19
Iteration:   707
 C        -0.069838         0.258214        -0.087548
 C         1.481206        -0.031952         0.159414
 C         2.448911        -1.348472         0.301140
 C         3.234617        -0.181578        -0.071139
 C         4.565169         0.571083        -0.345498
 C         4.287790         2.042398         0.124911
 O         2.956116         2.149157         0.745666
 C         2.602123         0.784506         0.970900
 O         2.258772         0.184636        -1.123270
 H        -0.735644        -0.259867         0.582857
 H        -0.118043         1.336592        -0.020091
 H        -0.548268         0.213713        -1.066597
 H         2.601938        -1.818339         1.258702
 H         2.293594        -2.035729        -0.490662
 H         5.302630         0.138860         0.308899
 H         4.986182         0.445522        -1.398802
 H         4.982582         2.306278         0.976536
 H         4.214543         2.805346        -0.709575
 H         2.505107         0.443590         2.010906
