19
Iteration:  2490charge 0 multiplicity 1
 C        -0.090433         0.004408         0.061553
 C         1.462688        -0.048114         0.139621
 C         2.312263        -1.323144         0.320323
 C         3.217976        -0.054616        -0.037230
 C         4.623974         0.545280        -0.345570
 C         4.315414         1.971543         0.038458
 O         3.021088         2.166803         0.593837
 C         2.587205         0.852202         1.055305
 O         2.258584         0.357903        -1.098344
 H        -0.724716        -0.140719         0.981400
 H        -0.333376         0.978744        -0.494338
 H        -0.343302        -0.759250        -0.680831
 H         2.579541        -1.839904         1.234157
 H         2.283120        -2.017618        -0.487981
 H         5.513910         0.063810         0.097212
 H         4.873711         0.478728        -1.446353
 H         4.982402         2.351941         0.882754
 H         4.521966         2.570919        -0.851476
 H         2.543579         0.606263         2.083785
