19
Iteration:  2350charge 0 multiplicity 1
 C        -0.003207         0.101957        -0.050707
 C         1.457998         0.005691         0.122150
 C         2.327890        -1.330340         0.300353
 C         3.287599        -0.074100         0.014926
 C         4.613759         0.466084        -0.334361
 C         4.180121         2.062884        -0.193456
 O         3.109513         2.105654         0.834899
 C         2.582960         0.806211         1.031662
 O         2.214303         0.326817        -1.059614
 H        -0.463471        -0.519093         0.747637
 H        -0.502717         1.113812        -0.044546
 H        -0.242941        -0.329211        -0.988449
 H         2.214110        -1.770703         1.394811
 H         2.375474        -2.046338        -0.512783
 H         5.278355         0.290264         0.528987
 H         5.223941         0.058650        -1.150029
 H         4.697590         2.998088         0.089830
 H         3.780794         2.192274        -1.223904
 H         2.620075         0.686924         2.109534
