19
Iteration:   662charge 0 multiplicity 1
 C        -0.102648         0.102522        -0.009951
 C         1.466608         0.075177         0.034775
 C         2.282760        -1.227658         0.316562
 C         3.334297        -0.145057        -0.084177
 C         4.631327         0.519742        -0.264847
 C         4.182585         1.989675         0.034913
 O         3.026924         2.102637         0.762474
 C         2.576783         0.741257         0.974993
 O         2.333508         0.338444        -1.111816
 H        -0.456204        -0.509256         0.811541
 H        -0.593022         1.047673        -0.191773
 H        -0.397196        -0.487271        -0.904564
 H         2.387288        -1.686569         1.261342
 H         2.107248        -2.021632        -0.442569
 H         5.271638         0.169317         0.501362
 H         5.062850         0.310693        -1.305042
 H         5.014759         2.338457         0.699901
 H         4.094131         2.637323        -0.856551
 H         2.807066         0.533452         2.024654
