19
Iteration:  3292
 C         0.088629         0.242087         0.020780
 C         1.474259        -0.009293         0.191143
 C         2.395866        -1.319474         0.392040
 C         3.287196        -0.132801        -0.086884
 C         4.658561         0.569343        -0.231947
 C         4.172329         2.087124        -0.056784
 O         2.935811         2.063802         0.764256
 C         2.531738         0.798586         0.866351
 O         2.221155         0.186990        -1.201592
 H        -0.487849        -0.050715         0.979235
 H         0.007363         1.310049        -0.157955
 H        -0.233306        -0.299509        -0.866442
 H         2.479486        -1.672736         1.497973
 H         2.102579        -1.956206        -0.418704
 H         5.269840        -0.010207         0.466911
 H         5.099646         0.337775        -1.172280
 H         4.995521         2.478736         0.668531
 H         3.934519         2.566977        -0.994599
 H         2.537955         0.504671         1.890999
