19
Iteration:  3109
 C         0.052590         0.351005         0.018458
 C         1.498406        -0.077662         0.157935
 C         2.446360        -1.374220         0.276141
 C         3.327448        -0.118873        -0.087818
 C         4.608391         0.491666        -0.242153
 C         4.043233         2.035554        -0.139866
 O         2.974562         2.086294         0.730258
 C         2.526133         0.764188         0.967264
 O         2.285399         0.251149        -1.028701
 H        -0.681344         0.052218         0.863761
 H        -0.041719         1.430624        -0.067049
 H        -0.233078        -0.125670        -0.882405
 H         2.556661        -1.876060         1.251652
 H         2.283450        -2.012445        -0.586811
 H         5.235974         0.102019         0.688055
 H         5.288789         0.323283        -1.063122
 H         4.735799         2.737069         0.302884
 H         3.694121         2.484678        -1.074679
 H         2.495521         0.670908         1.981397
