19
Iteration:  2432
 C        -0.008655         0.173047         0.216534
 C         1.469574        -0.025148         0.002494
 C         2.323692        -1.301716         0.315033
 C         3.299860        -0.073530        -0.111847
 C         4.632220         0.505383        -0.272273
 C         4.286554         2.112246         0.062651
 O         2.929219         2.135927         0.676029
 C         2.508875         0.730025         0.878582
 O         2.295354         0.192696        -1.172143
 H        -0.168589         0.208636         1.277166
 H        -0.257007         1.147791        -0.171402
 H        -0.698334        -0.628480        -0.203661
 H         2.518415        -1.678609         1.305807
 H         2.211028        -2.075350        -0.417267
 H         5.385908         0.223713         0.452073
 H         4.849024         0.389729        -1.345614
 H         4.895184         2.475794         0.951711
 H         4.471446         2.838257        -0.858398
 H         2.574914         0.445440         1.878250
