19
Iteration:  1464
 C        -0.094981         0.046426        -0.009003
 C         1.413062         0.000201         0.083713
 C         2.416804        -1.350583         0.267953
 C         3.259904        -0.049608        -0.070635
 C         4.683090         0.515824        -0.257451
 C         4.363644         2.016076         0.015921
 O         3.049314         2.137784         0.723496
 C         2.517668         0.835031         1.011101
 O         2.139282         0.332787        -1.115180
 H        -0.318380        -0.552524         0.903420
 H        -0.430045         1.128568        -0.005753
 H        -0.372871        -0.437737        -0.953051
 H         2.650110        -1.606041         1.320040
 H         2.320092        -2.203958        -0.370618
 H         5.251547         0.005129         0.530075
 H         5.006561         0.428236        -1.349263
 H         5.186662         2.532363         0.656988
 H         4.000139         2.489981        -0.992316
 H         2.498363         0.584006         2.062236
