19
Iteration:  1352charge 0 multiplicity 1
 C        -0.020971         0.157809         0.013642
 C         1.506159         0.011645         0.113118
 C         2.372908        -1.259640         0.295030
 C         3.292932        -0.155721        -0.155533
 C         4.658066         0.549880        -0.181769
 C         4.176851         2.070157        -0.025682
 O         3.017250         2.054842         0.757804
 C         2.624967         0.726837         1.012544
 O         2.145828         0.288605        -1.185768
 H        -0.606732         0.249006         0.919148
 H        -0.155874         1.074536        -0.528705
 H        -0.601363        -0.547838        -0.573761
 H         2.529632        -1.626858         1.255484
 H         2.107689        -2.114483        -0.354027
 H         5.248994         0.279870         0.759960
 H         5.254535         0.546171        -1.050004
 H         5.062148         2.511786         0.547443
 H         3.970217         2.454600        -0.983316
 H         2.771676         0.515271         2.030902
