19
Iteration:  2265charge 0 multiplicity 1
 C        -0.070845         0.237769         0.084981
 C         1.446049        -0.025941         0.180298
 C         2.473660        -1.325700         0.252007
 C         3.337792        -0.114767        -0.037467
 C         4.695646         0.523858        -0.267540
 C         4.289380         2.022349         0.003871
 O         2.853172         2.050523         0.567153
 C         2.550418         0.737562         0.989567
 O         2.187011         0.319873        -1.103405
 H        -0.414708         0.367558         1.158977
 H        -0.269388         1.228155        -0.375221
 H        -0.596144        -0.549528        -0.420143
 H         2.865447        -1.827302         1.090210
 H         2.178009        -2.001385        -0.560112
 H         5.308375         0.259610         0.616378
 H         5.107068         0.333541        -1.225686
 H         5.015260         2.384790         0.758600
 H         4.347495         2.610323        -1.030905
 H         2.665330         0.654714         2.128790
