19
Iteration:  4914
 C        -0.041650         0.014549        -0.057057
 C         1.427360        -0.046449         0.070369
 C         2.302097        -1.295028         0.410713
 C         3.257813        -0.072799         0.040317
 C         4.672097         0.486377        -0.258031
 C         4.227727         2.015221        -0.140753
 O         3.049709         2.172634         0.726519
 C         2.467065         0.836481         0.971297
 O         2.369993         0.373930        -1.079560
 H        -0.553546        -0.147294         0.949109
 H        -0.440928         0.925796        -0.553535
 H        -0.355125        -0.855342        -0.746232
 H         2.370068        -1.612210         1.462723
 H         2.153423        -2.215772        -0.201170
 H         5.535327         0.261090         0.388836
 H         4.825675         0.144380        -1.266024
 H         5.135958         2.526412         0.222311
 H         4.072636         2.432679        -1.064890
 H         2.319727         0.595925         2.053769
