19
Iteration:  2740
 C        -0.018058         0.202181         0.059410
 C         1.503105        -0.076251         0.134426
 C         2.435223        -1.342312         0.312686
 C         3.292293        -0.090340        -0.174535
 C         4.614984         0.527593        -0.187052
 C         4.296123         2.063099         0.097235
 O         2.916134         2.155325         0.659462
 C         2.549251         0.806345         0.878533
 O         2.150794         0.187365        -1.176170
 H        -0.442604        -0.306165         0.971686
 H        -0.169575         1.291764         0.242844
 H        -0.504180        -0.104088        -0.843880
 H         2.803360        -1.479463         1.354943
 H         2.325342        -2.225218        -0.453520
 H         5.218367         0.224166         0.682032
 H         5.067243         0.392508        -1.155317
 H         4.933862         2.408651         0.856440
 H         4.462470         2.775104        -0.819541
 H         2.673953         0.503750         2.008005
