19
Iteration:   844
 C        -0.010908         0.202739        -0.133354
 C         1.451824        -0.000449         0.026715
 C         2.412149        -1.344073         0.290968
 C         3.243880        -0.116953         0.125340
 C         4.557015         0.516631        -0.316933
 C         4.181918         1.968882        -0.158936
 O         3.017621         2.081825         0.849856
 C         2.536174         0.793908         1.015152
 O         2.357452         0.370422        -0.993952
 H        -0.362742        -0.203777         0.821204
 H        -0.109722         1.294303        -0.316073
 H        -0.481881        -0.359219        -0.981618
 H         2.355477        -2.019520         1.218171
 H         2.354664        -1.974247        -0.707813
 H         5.437923         0.129848         0.166702
 H         4.831688         0.306827        -1.366157
 H         4.907515         2.624020         0.344064
 H         3.661491         2.339167        -1.053254
 H         2.467692         0.434293         2.042055
