19
Iteration:  2516
 C        -0.057149         0.002126         0.084180
 C         1.512043         0.066921         0.014816
 C         2.256546        -1.219242         0.417908
 C         3.284553        -0.076213        -0.020969
 C         4.591643         0.509499        -0.391607
 C         4.288672         2.006165         0.017258
 O         3.014217         2.111684         0.741100
 C         2.543315         0.855297         0.903684
 O         2.293860         0.277936        -1.117023
 H        -0.365802        -0.516168         1.032674
 H        -0.566994         0.948079         0.027692
 H        -0.375764        -0.594751        -0.789838
 H         2.404256        -1.764101         1.365135
 H         2.378548        -1.932198        -0.487171
 H         5.419646         0.082912         0.191859
 H         5.016246         0.491997        -1.377288
 H         5.003792         2.400153         0.657987
 H         4.278552         2.533448        -0.868875
 H         2.366246         0.440402         1.993966
