19
Iteration:  3607charge 0 multiplicity 1
 C         0.073831         0.350274         0.078930
 C         1.526969         0.015610         0.104442
 C         2.344361        -1.342538         0.341658
 C         3.290563        -0.146827        -0.065199
 C         4.562748         0.486241        -0.153589
 C         4.070853         2.107472        -0.242395
 O         2.936522         2.115107         0.811106
 C         2.546775         0.741112         1.039240
 O         2.421530         0.122798        -1.258152
 H        -0.480756        -0.107148         0.984856
 H        -0.120238         1.433207         0.117544
 H        -0.511056        -0.103282        -0.725826
 H         2.252532        -1.810438         1.417716
 H         2.287313        -2.036469        -0.540848
 H         5.219813         0.237577         0.765806
 H         5.138483         0.256228        -1.009684
 H         4.749840         2.899933         0.015407
 H         3.664623         2.414911        -1.200031
 H         2.606861         0.517602         2.122878
