19
Iteration:  4854
 C        -0.058871         0.168994        -0.076201
 C         1.415497        -0.043458         0.033717
 C         2.504754        -1.274288         0.508897
 C         3.272326        -0.087369        -0.081676
 C         4.608457         0.478409        -0.247701
 C         4.294265         1.988510         0.004600
 O         2.918616         2.148732         0.607282
 C         2.556233         0.835071         0.973283
 O         2.258823         0.237799        -1.105730
 H        -0.359229        -0.275437         0.874094
 H        -0.335652         1.250521        -0.015481
 H        -0.643290        -0.360512        -0.847374
 H         2.712617        -1.420892         1.599483
 H         2.397799        -2.159196        -0.078504
 H         5.335992         0.087097         0.473604
 H         4.963115         0.280315        -1.287847
 H         4.960596         2.384353         0.754192
 H         4.102231         2.683127        -0.928861
 H         2.436252         0.607040         2.079485
