19
Iteration:  3818charge 0 multiplicity 1
 C        -0.090881         0.258674         0.002973
 C         1.391131        -0.029372         0.107252
 C         2.356591        -1.344204         0.414444
 C         3.357453        -0.145746        -0.024076
 C         4.636464         0.642324        -0.351168
 C         4.223431         2.048954         0.073229
 O         2.967726         2.027058         0.696132
 C         2.562803         0.758349         0.851977
 O         2.333896         0.204768        -1.115513
 H        -0.486311         0.112727         1.039633
 H        -0.280095         1.262925        -0.432875
 H        -0.509908        -0.529740        -0.678103
 H         2.407873        -1.638948         1.564989
 H         2.105250        -2.110451        -0.310589
 H         5.646787         0.385682         0.036004
 H         4.887776         0.654840        -1.428634
 H         4.862489         2.592458         0.872852
 H         4.291436         2.720609        -0.754509
 H         2.528908         0.615002         1.939013
