19
Iteration:  1247
 C         0.014580         0.223046         0.026386
 C         1.439134         0.006171         0.031773
 C         2.452322        -1.379497         0.296854
 C         3.258718        -0.099813         0.025752
 C         4.691813         0.519953        -0.236384
 C         4.227665         2.060267        -0.006702
 O         3.004706         2.088595         0.727389
 C         2.469457         0.801357         0.934828
 O         2.195183         0.228177        -1.144305
 H        -0.239553        -0.215428         1.031954
 H        -0.117390         1.322044         0.206985
 H        -0.583855        -0.137212        -0.849434
 H         2.725177        -1.928383         1.325994
 H         2.319638        -1.925577        -0.670748
 H         5.256841         0.027660         0.578026
 H         5.124828         0.097508        -1.208779
 H         4.843687         2.830511         0.406536
 H         4.069739         2.501616        -1.033983
 H         2.279377         0.829101         2.047428
