19
Iteration:  1021
 C        -0.043638         0.202828         0.052403
 C         1.492636        -0.035304         0.055030
 C         2.239447        -1.346519         0.344901
 C         3.292221        -0.128629        -0.060489
 C         4.617772         0.513429        -0.277469
 C         4.219716         2.112791        -0.021048
 O         3.026642         2.131709         0.839984
 C         2.559686         0.753283         0.874780
 O         2.366707         0.222158        -1.153104
 H        -0.510856         0.192657         1.053286
 H        -0.217725         1.164049        -0.459516
 H        -0.414660        -0.562661        -0.650137
 H         2.112225        -1.629736         1.411060
 H         2.029212        -2.117756        -0.372812
 H         5.362384         0.297048         0.402547
 H         4.805589         0.367134        -1.374103
 H         4.855673         2.848019         0.530241
 H         4.101137         2.505825        -1.084159
 H         2.580072         0.458702         1.973987
