19
Iteration:  2646charge 0 multiplicity 1
 C        -0.042175         0.106758        -0.061792
 C         1.415916        -0.106237         0.077560
 C         2.483737        -1.295585         0.354605
 C         3.214377        -0.100810        -0.141083
 C         4.554826         0.576757        -0.248521
 C         4.267747         2.078313        -0.005101
 O         3.091015         2.146738         0.828020
 C         2.615305         0.797159         1.002757
 O         2.172169         0.223085        -1.147600
 H        -0.574285         0.209771         0.956750
 H        -0.037744         1.095053        -0.527166
 H        -0.624056        -0.607519        -0.747219
 H         2.476406        -1.444560         1.415419
 H         2.227038        -2.180592        -0.284849
 H         5.159208         0.239874         0.644651
 H         5.048677         0.473540        -1.231724
 H         5.301699         2.711548         0.166087
 H         3.862785         2.391750        -0.951141
 H         2.357814         0.566153         1.969201
