19
Iteration:  1283
 C        -0.028540         0.071652        -0.083435
 C         1.398751         0.037092         0.282582
 C         2.262467        -1.238571         0.330266
 C         3.267094        -0.102011        -0.117473
 C         4.674300         0.524220        -0.255816
 C         4.158962         2.052393        -0.134521
 O         3.031836         2.015595         0.720635
 C         2.594354         0.745385         1.029900
 O         2.381670         0.396620        -1.073989
 H        -0.666887        -0.498086         0.611845
 H        -0.343470         1.129003        -0.091925
 H        -0.281969        -0.338819        -1.050821
 H         2.452470        -1.815319         1.293642
 H         2.055928        -2.020491        -0.394176
 H         5.284627         0.212921         0.660910
 H         5.236272         0.250637        -1.248069
 H         4.855477         2.662994         0.369156
 H         3.794207         2.330249        -1.148912
 H         2.597597         0.466205         2.073668
