19
Iteration:  1102
 C        -0.032508         0.150372        -0.008375
 C         1.449056         0.017508         0.137829
 C         2.322268        -1.324845         0.346193
 C         3.293458        -0.128111         0.026383
 C         4.620020         0.514654        -0.204111
 C         4.204908         2.035280        -0.149756
 O         3.101430         2.095715         0.753586
 C         2.521793         0.753439         0.944243
 O         2.269946         0.349874        -1.137433
 H        -0.547073        -0.444633         0.757277
 H        -0.347614         1.207792         0.059541
 H        -0.429424        -0.288445        -0.931368
 H         2.444410        -2.003099         1.259202
 H         2.117841        -1.965693        -0.582155
 H         5.468742         0.313445         0.422709
 H         5.010277         0.287947        -1.129860
 H         4.858129         2.702871         0.368163
 H         4.038009         2.342152        -1.142771
 H         2.424771         0.553491         1.991171
