19
Iteration:  2645
 C        -0.038220         0.107538        -0.061064
 C         1.412625        -0.110684         0.074151
 C         2.475680        -1.290582         0.353627
 C         3.212835        -0.105032        -0.140984
 C         4.562645         0.581574        -0.248940
 C         4.257574         2.077970        -0.005844
 O         3.091362         2.143312         0.829201
 C         2.616344         0.800144         1.010311
 O         2.174050         0.217824        -1.149427
 H        -0.549961         0.237585         0.970013
 H        -0.018071         1.101112        -0.517901
 H        -0.578333        -0.574940        -0.742333
 H         2.502320        -1.420903         1.384254
 H         2.221704        -2.187985        -0.298293
 H         5.161890         0.247472         0.658858
 H         5.037337         0.479338        -1.228680
 H         5.298887         2.693831         0.177327
 H         3.843909         2.388202        -0.983452
 H         2.364639         0.574675         1.966718
