19
Iteration:  4614
 C        -0.129966         0.100168         0.058679
 C         1.464067        -0.046042         0.064864
 C         2.399954        -1.261781         0.382999
 C         3.272903        -0.037857        -0.023920
 C         4.632811         0.568390        -0.260837
 C         4.374787         2.089879         0.105937
 O         2.995444         2.153790         0.615734
 C         2.443020         0.839041         0.836636
 O         2.316698         0.047592        -1.153998
 H        -0.503034         0.146743         1.126821
 H        -0.489811         1.170305        -0.305186
 H        -0.833115        -0.665440        -0.384375
 H         2.431166        -1.625874         1.419949
 H         2.261808        -1.930018        -0.496954
 H         5.306188         0.132367         0.399373
 H         4.855513         0.603795        -1.297402
 H         5.036012         2.268525         0.932573
 H         4.603160         2.857480        -0.689246
 H         2.374030         0.841909         1.960104
