19
Iteration:   473
 C        -0.059798        -0.068602         0.179693
 C         1.464916         0.075741        -0.022426
 C         2.281351        -1.242409         0.174946
 C         3.235175        -0.107765        -0.027808
 C         4.700650         0.492069        -0.120452
 C         4.270969         1.966553         0.032897
 O         3.066667         2.134269         0.803100
 C         2.496433         0.852194         0.883911
 O         2.284074         0.416790        -1.270949
 H        -0.387930        -0.542059         1.127298
 H        -0.626900         0.889145         0.035716
 H        -0.454699        -0.756488        -0.574852
 H         2.202546        -1.840957         1.152027
 H         2.044410        -1.869543        -0.654024
 H         5.160673         0.019370         0.830969
 H         5.417197         0.400214        -0.983487
 H         5.259659         2.461043         0.407672
 H         4.164972         2.285584        -1.001669
 H         2.458151         0.587324         1.966106
