19
Iteration:  2188
 C        -0.000473        -0.013391         0.047066
 C         1.443803        -0.038343         0.095222
 C         2.446219        -1.287228         0.334805
 C         3.180307        -0.058849        -0.075949
 C         4.567177         0.582703        -0.298920
 C         4.493046         2.008704         0.105028
 O         2.998020         2.127241         0.613566
 C         2.534327         0.894982         0.964112
 O         2.067306         0.239934        -1.133815
 H        -0.539262        -0.400204         0.971272
 H        -0.241038         1.094794        -0.061450
 H        -0.241886        -0.356340        -0.917057
 H         2.364617        -1.431125         1.375925
 H         2.375230        -2.104244        -0.293044
 H         5.389270         0.131344         0.277411
 H         4.871772         0.469345        -1.349205
 H         5.176637         2.257000         0.899214
 H         4.716494         2.793152        -0.738431
 H         2.623294         0.659329         2.131592
