19
Iteration:  1127charge 0 multiplicity 1
 C         0.007195         0.016819        -0.054346
 C         1.449209         0.090148         0.111968
 C         2.168681        -1.118436         0.336726
 C         3.254642        -0.090630        -0.063220
 C         4.593133         0.479770        -0.333796
 C         4.263032         2.067966        -0.040461
 O         3.044923         2.077614         0.786886
 C         2.652499         0.706798         1.035565
 O         2.293924         0.278100        -1.135014
 H        -0.366352        -0.344067         0.904224
 H        -0.469929         0.952781        -0.254952
 H        -0.353624        -0.778906        -0.737271
 H         2.198846        -1.262208         1.440067
 H         2.160010        -2.100974        -0.166613
 H         5.449650         0.095394         0.330869
 H         5.201056         0.311374        -1.317939
 H         4.943822         2.695015         0.483949
 H         4.058575         2.477416        -1.074985
 H         2.620388         0.488210         2.088846
