19
Iteration:   743
 C         0.001503         0.141491         0.047725
 C         1.523674        -0.014471         0.037876
 C         2.288968        -1.346702         0.269491
 C         3.330738        -0.214388        -0.080667
 C         4.633565         0.528837        -0.288039
 C         4.259212         2.010060         0.115808
 O         2.880743         2.068721         0.628967
 C         2.554511         0.827266         0.965181
 O         2.296577         0.404387        -1.103803
 H        -0.448157        -0.009093         1.028117
 H        -0.063518         1.221952         0.006148
 H        -0.503544        -0.405647        -0.714932
 H         2.368047        -1.700360         1.338296
 H         2.034561        -2.108103        -0.486108
 H         5.297371         0.138012         0.535607
 H         5.021411         0.292397        -1.203197
 H         4.945853         2.346772         0.943777
 H         4.307482         2.800805        -0.650223
 H         2.618674         0.719497         2.017024
