19
Iteration:    28
 C         0.024551         0.172793         0.224915
 C         1.457692        -0.002595         0.023953
 C         2.201511        -1.325510         0.243830
 C         3.337786        -0.111895        -0.124651
 C         4.663238         0.577084        -0.077164
 C         4.222177         2.052681        -0.071813
 O         2.940647         2.085274         0.724137
 C         2.601342         0.701927         0.816952
 O         2.364026         0.274933        -1.192946
 H        -0.167477         0.215828         1.336066
 H        -0.236938         1.192537        -0.166445
 H        -0.749245        -0.525794        -0.200120
 H         2.094123        -1.802749         1.262704
 H         1.983830        -2.092513        -0.545811
 H         5.031950         0.366201         1.026171
 H         5.401898         0.369698        -0.900528
 H         4.879876         2.824789         0.417514
 H         3.889868         2.536995        -1.024060
 H         2.428195         0.425776         1.886963
