19
Iteration:  2902charge 0 multiplicity 1
 C        -0.011310         0.179967         0.068328
 C         1.457841        -0.035257         0.125480
 C         2.353856        -1.320206         0.321107
 C         3.310459        -0.104753        -0.020537
 C         4.595681         0.536663        -0.335617
 C         4.255627         2.032909        -0.014014
 O         2.924702         2.016745         0.644312
 C         2.562730         0.773225         1.000636
 O         2.316529         0.345011        -1.110633
 H        -0.678136        -0.196617         0.905847
 H        -0.345657         1.240233        -0.017110
 H        -0.287320        -0.326989        -0.834305
 H         2.254193        -1.799924         1.278570
 H         2.266287        -2.009390        -0.564159
 H         5.420280         0.350781         0.322095
 H         4.986550         0.494506        -1.331588
 H         4.990731         2.463758         0.726946
 H         4.240487         2.796843        -0.835762
 H         2.518082         0.496049         2.099241
