19
Iteration:  1732charge 0 multiplicity 1
 C         0.046748         0.313676        -0.036207
 C         1.448293         0.013283         0.201751
 C         2.518769        -1.378842         0.231585
 C         3.279523        -0.177498        -0.066738
 C         4.590802         0.624722        -0.316218
 C         4.142530         1.988720        -0.086523
 O         2.959931         2.084222         0.772697
 C         2.563563         0.702035         1.016791
 O         2.208496         0.277488        -1.035294
 H        -0.638816         0.182722         0.878872
 H         0.006322         1.330233        -0.540037
 H        -0.351169        -0.475155        -0.689875
 H         2.571187        -1.953786         1.205295
 H         2.104155        -1.985817        -0.588047
 H         5.291753         0.243792         0.448826
 H         5.044725         0.378991        -1.312978
 H         5.115242         2.460915         0.407474
 H         3.960034         2.672392        -0.969249
 H         2.639044         0.375119         2.070166
