19
Iteration:  2441
 C        -0.036587         0.163560         0.161400
 C         1.456669        -0.045100         0.123806
 C         2.408017        -1.258203         0.326267
 C         3.246631        -0.140983        -0.159067
 C         4.612553         0.586235        -0.297282
 C         4.264580         2.013488         0.139726
 O         2.934318         2.136042         0.648812
 C         2.565140         0.796296         0.842300
 O         2.289574         0.224697        -1.158681
 H        -0.189951         0.209900         1.243295
 H        -0.253555         1.075732        -0.322674
 H        -0.698926        -0.631196        -0.213310
 H         2.296784        -1.668027         1.336330
 H         2.176953        -2.069892        -0.481446
 H         5.277651         0.025989         0.391867
 H         5.113831         0.375478        -1.244468
 H         4.980156         2.495127         0.883945
 H         4.307483         2.691319        -0.885546
 H         2.724182         0.392458         1.831160
