19
Iteration:  3794
 C         0.142759         0.234304         0.014057
 C         1.503175        -0.025733         0.125613
 C         2.344725        -1.319742         0.265210
 C         3.298548        -0.105661        -0.022856
 C         4.565238         0.457600        -0.397730
 C         4.224477         2.072183         0.100766
 O         2.785163         2.115129         0.561482
 C         2.565978         0.804470         1.073057
 O         2.301894         0.190669        -1.059095
 H        -0.186682         0.030095         1.038453
 H         0.086626         1.375055        -0.181002
 H        -0.402212        -0.351348        -0.826528
 H         2.337494        -1.697410         1.353794
 H         2.221257        -2.107897        -0.611516
 H         5.456170         0.107652         0.088333
 H         4.854488         0.414718        -1.369263
 H         4.889504         2.354902         1.073445
 H         4.521961         2.830308        -0.629380
 H         2.604007         0.787549         2.158419
