19
Iteration:  4731charge 0 multiplicity 1
 C        -0.043862         0.040859        -0.213877
 C         1.432754         0.093904         0.111306
 C         2.218254        -1.188013         0.554015
 C         3.374388        -0.152273        -0.028799
 C         4.699123         0.521227        -0.385254
 C         4.098559         2.042647        -0.173110
 O         3.083464         2.095655         0.910815
 C         2.539458         0.812709         0.981306
 O         2.361738         0.237250        -1.091374
 H        -0.534603        -0.219893         0.698549
 H        -0.468977         0.953349        -0.564647
 H        -0.131306        -0.754390        -0.892649
 H         2.264250        -1.443295         1.580299
 H         2.275160        -2.163422        -0.010028
 H         5.379820         0.159991         0.436444
 H         4.940932         0.495463        -1.446679
 H         4.698425         2.883701         0.164887
 H         3.717154         2.225328        -1.197054
 H         2.444133         0.537347         2.017043
