19
Iteration:  2853charge 0 multiplicity 1
 C        -0.044248         0.002234         0.005131
 C         1.440501         0.056355         0.090973
 C         2.284593        -1.245454         0.266126
 C         3.294938        -0.060774        -0.091210
 C         4.584829         0.605556        -0.167209
 C         4.255362         2.064709        -0.161487
 O         3.165192         2.042232         0.858701
 C         2.536051         0.742564         0.985794
 O         2.223152         0.297640        -1.162115
 H        -0.561699        -0.001695         0.934371
 H        -0.400456         0.962593        -0.323844
 H        -0.427305        -0.765168        -0.711453
 H         2.553665        -1.591708         1.288935
 H         2.136346        -2.108946        -0.371307
 H         5.178867         0.373407         0.812839
 H         5.246918         0.246080        -1.012226
 H         5.020346         2.765383         0.123793
 H         3.794324         2.373617        -1.122897
 H         2.549082         0.379968         2.134659
