19
Iteration:  2982
 C        -0.007683         0.048328         0.140723
 C         1.433521         0.027595         0.117509
 C         2.253630        -1.239300         0.305106
 C         3.269206        -0.046787        -0.018693
 C         4.663860         0.518436        -0.335787
 C         4.317038         2.001693         0.079239
 O         3.004762         2.121607         0.700203
 C         2.515761         0.776178         0.880581
 O         2.310453         0.269730        -1.214212
 H        -0.347973        -0.242501         1.148880
 H        -0.402122         0.978195        -0.233407
 H        -0.396585        -0.812191        -0.476188
 H         2.312060        -1.657144         1.369344
 H         1.918740        -1.965078        -0.405944
 H         5.487531         0.318014         0.242577
 H         4.904570         0.457331        -1.371064
 H         4.915497         2.412301         0.870086
 H         4.349991         2.655180        -0.835929
 H         2.397321         0.614421         1.920831
