19
Iteration:  4871charge 0 multiplicity 1
 C        -0.000494         0.059692        -0.139822
 C         1.504149        -0.013825         0.209155
 C         2.374354        -1.292720         0.474224
 C         3.240355        -0.089317         0.001105
 C         4.608377         0.505435        -0.357190
 C         4.331180         1.991763        -0.040827
 O         2.940812         2.136186         0.621242
 C         2.500611         0.829466         0.969265
 O         2.223287         0.310584        -1.030397
 H        -0.782969        -0.251422         0.573634
 H        -0.136271         1.100485        -0.414267
 H         0.013529        -0.471436        -1.093410
 H         2.449050        -1.470968         1.542717
 H         2.335345        -2.211362        -0.148001
 H         5.279415         0.030209         0.395833
 H         4.967180         0.448168        -1.383594
 H         5.041637         2.570422         0.634851
 H         4.309360         2.548988        -0.931187
 H         2.712598         0.725303         2.017007
