19
Iteration:  3490charge 0 multiplicity 1
 C        -0.076190         0.052360         0.071701
 C         1.435215        -0.059166         0.121708
 C         2.402355        -1.297672         0.330125
 C         3.157403        -0.033332        -0.102559
 C         4.668264         0.433620        -0.244968
 C         4.410118         2.047796         0.068289
 O         3.006615         2.179915         0.647200
 C         2.472488         0.897177         0.932268
 O         2.193442         0.242836        -1.164686
 H        -0.571224         0.067299         1.030663
 H        -0.150144         1.025345        -0.451461
 H        -0.416626        -0.751669        -0.612748
 H         2.644860        -1.604269         1.309364
 H         2.379701        -2.135319        -0.407836
 H         5.389524        -0.051171         0.497962
 H         5.175387         0.329107        -1.202126
 H         5.179646         2.551443         0.790940
 H         4.413369         2.725090        -0.782612
 H         2.632709         0.644549         2.018253
