19
Iteration:  2079
 C         0.089747         0.255849         0.068116
 C         1.482733        -0.085352         0.124126
 C         2.360858        -1.350804         0.230302
 C         3.289987        -0.117581        -0.085747
 C         4.554335         0.621765        -0.211749
 C         4.154750         2.089977        -0.143131
 O         3.014699         2.057311         0.759723
 C         2.572516         0.623881         0.995443
 O         2.255427         0.301771        -1.116449
 H        -0.485317         0.300116         1.066582
 H         0.048400         1.311903        -0.402596
 H        -0.434687        -0.499775        -0.487337
 H         2.578074        -1.649983         1.351834
 H         2.201552        -2.165884        -0.420440
 H         4.895159         0.502974         0.845369
 H         5.184375         0.274534        -1.032402
 H         4.884503         2.704468         0.247560
 H         3.799541         2.494981        -1.180624
 H         2.473031         0.574026         2.024385
