19
Iteration:  1864charge 0 multiplicity 1
 C        -0.033163         0.140159         0.047535
 C         1.444274        -0.050872         0.068487
 C         2.379698        -1.300381         0.262719
 C         3.273018        -0.096491        -0.016434
 C         4.637508         0.544842        -0.436794
 C         4.293607         2.032491         0.085971
 O         3.003910         2.091427         0.726859
 C         2.447967         0.836344         0.982228
 O         2.276925         0.270132        -1.069054
 H        -0.238774        -0.165233         1.106412
 H        -0.383153         1.197120        -0.105929
 H        -0.425862        -0.524432        -0.673109
 H         2.552828        -1.705059         1.235424
 H         2.403975        -2.071788        -0.429509
 H         5.389406         0.028097         0.137144
 H         4.661794         0.406127        -1.544012
 H         5.204114         2.546320         0.575824
 H         4.244549         2.758116        -0.732522
 H         2.304789         0.524229         2.017113
