19
Iteration:  1959
 C         0.010542         0.017860         0.183333
 C         1.446715        -0.110516         0.087177
 C         2.300500        -1.263382         0.274027
 C         3.248966        -0.013029        -0.045938
 C         4.665208         0.471717        -0.324114
 C         4.335027         1.912173         0.079679
 O         2.892469         2.162794         0.666635
 C         2.561576         0.847706         0.934182
 O         2.293482         0.415918        -1.215634
 H        -0.395250        -0.190147         1.242991
 H        -0.288140         1.106315         0.033634
 H        -0.489952        -0.583700        -0.587898
 H         2.491627        -1.738691         1.334676
 H         2.345092        -2.120660        -0.448574
 H         5.363862         0.119483         0.431480
 H         4.775510         0.413520        -1.426720
 H         5.070497         2.276153         0.760777
 H         4.378097         2.678281        -0.784477
 H         2.471484         0.488310         1.994343
