19
Iteration:  4258
 C        -0.053617         0.058552        -0.064270
 C         1.452313         0.003049         0.094463
 C         2.302408        -1.256450         0.440838
 C         3.277366        -0.098356         0.072575
 C         4.599060         0.576764        -0.385697
 C         4.295884         2.017561         0.069456
 O         2.992289         2.071180         0.618972
 C         2.565869         0.844450         0.969429
 O         2.286835         0.261723        -1.099320
 H        -0.525797        -0.118773         0.931433
 H        -0.347051         1.147100        -0.356072
 H        -0.487606        -0.720304        -0.799031
 H         2.496290        -1.793927         1.370201
 H         2.336807        -1.940776        -0.439116
 H         5.513090         0.352363         0.080559
 H         4.653241         0.452060        -1.518003
 H         5.122530         2.347671         0.723266
 H         4.448809         2.764269        -0.692551
 H         2.573706         0.488270         2.059149
