19
Iteration:  2702
 C         0.015364        -0.018516         0.082179
 C         1.437631         0.031178         0.048962
 C         2.262365        -1.325238         0.279085
 C         3.197941        -0.107038         0.008841
 C         4.624954         0.473328        -0.265252
 C         4.299351         2.017623         0.024662
 O         2.941488         2.166317         0.571604
 C         2.568747         0.810108         0.943844
 O         2.354247         0.422715        -1.055112
 H        -0.272451        -0.468906         1.029146
 H        -0.496832         0.940096        -0.095952
 H        -0.435571        -0.803874        -0.660250
 H         2.370032        -1.825783         1.270529
 H         2.179433        -2.102414        -0.408994
 H         5.552532         0.317376         0.293219
 H         4.962776         0.192237        -1.305150
 H         5.139894         2.353147         0.893812
 H         4.311065         2.798856        -0.680652
 H         2.601847         0.658910         1.961701
