19
Iteration:  2633
 C         0.021213         0.179652        -0.037098
 C         1.462186        -0.098259         0.068090
 C         2.339076        -1.271349         0.358567
 C         3.270788        -0.052400        -0.079676
 C         4.630269         0.589367        -0.260342
 C         4.130898         2.039963        -0.121730
 O         3.070117         2.087271         0.870755
 C         2.546268         0.804967         1.003908
 O         2.218755         0.179202        -1.164590
 H        -0.481370         0.189412         0.993451
 H        -0.081945         1.175828        -0.491349
 H        -0.474286        -0.528352        -0.671759
 H         2.634123        -1.646030         1.279546
 H         2.398130        -2.136334        -0.366340
 H         5.328112         0.206000         0.542229
 H         5.195230         0.413064        -1.173250
 H         4.869057         2.668771         0.547940
 H         3.953040         2.615467        -1.084337
 H         2.748981         0.522022         1.981773
