19
Iteration:  3029
 C        -0.012320         0.038646        -0.035665
 C         1.411072        -0.052924         0.167357
 C         2.454079        -1.207061         0.282548
 C         3.232339        -0.052156        -0.061246
 C         4.623056         0.473162        -0.260261
 C         4.304609         1.965443        -0.092520
 O         3.074343         2.102600         0.706118
 C         2.508223         0.800502         0.971004
 O         2.149713         0.384929        -1.012848
 H        -0.576126         0.012273         0.874991
 H         0.001285         1.057666        -0.572306
 H        -0.643243        -0.668653        -0.712152
 H         2.598323        -1.733240         1.327008
 H         2.469527        -1.992285        -0.561010
 H         5.242656         0.025729         0.672208
 H         5.125624         0.283738        -1.312985
 H         4.961338         2.589074         0.551073
 H         3.942358         2.500587        -0.949945
 H         2.561953         0.593023         1.975047
