19
Iteration:  1623charge 0 multiplicity 1
 C        -0.073433         0.068774         0.024547
 C         1.427643         0.010791         0.117159
 C         2.438793        -1.241218         0.238217
 C         3.256368        -0.039508        -0.039482
 C         4.646055         0.530406        -0.256409
 C         4.245690         1.942597        -0.059414
 O         3.036844         2.070031         0.700028
 C         2.549234         0.762878         0.979059
 O         2.212669         0.356249        -1.042508
 H        -0.642652        -0.288147         0.913300
 H        -0.365996         1.155055        -0.014728
 H        -0.475160        -0.271808        -0.973395
 H         2.673252        -1.644885         1.247862
 H         2.461570        -1.977972        -0.622197
 H         5.313137         0.015989         0.491346
 H         5.073760         0.384292        -1.267693
 H         4.954677         2.473178         0.580348
 H         3.969881         2.399152        -0.971711
 H         2.683073         0.571782         2.089466
