19
Iteration:   381
 C        -0.001841         0.374653        -0.021072
 C         1.519471        -0.012226         0.044360
 C         2.428274        -1.345846         0.297131
 C         3.289418        -0.151790        -0.053807
 C         4.643014         0.444679        -0.401442
 C         4.149895         2.097556        -0.001742
 O         2.871743         2.051084         0.856007
 C         2.458834         0.674651         0.991447
 O         2.410078         0.271662        -1.055102
 H        -0.619064        -0.006389         0.823827
 H         0.051556         1.443556        -0.268586
 H        -0.448354        -0.196850        -0.902362
 H         2.500532        -1.640547         1.315516
 H         2.267342        -2.235155        -0.407469
 H         5.553225         0.168076         0.171026
 H         4.586251         0.506477        -1.530016
 H         4.800598         2.684166         0.616253
 H         3.827122         2.709221        -0.893232
 H         2.652625         0.467985         2.044771
