19
Iteration:  4359
 C         0.019181         0.017034        -0.033688
 C         1.477338         0.068954         0.106750
 C         2.302993        -1.254792         0.366973
 C         3.269693        -0.098333         0.007981
 C         4.657869         0.473253        -0.279743
 C         4.266976         2.017636        -0.032879
 O         2.904887         2.156547         0.648726
 C         2.546902         0.828485         1.029789
 O         2.336702         0.289156        -1.126641
 H        -0.430207        -0.150576         1.018059
 H        -0.535678         0.904950        -0.375986
 H        -0.435997        -0.886903        -0.552305
 H         2.239654        -1.670005         1.393006
 H         2.158189        -1.853018        -0.478771
 H         5.399574        -0.003844         0.293420
 H         4.924272         0.363225        -1.310719
 H         5.035920         2.471634         0.583485
 H         4.256767         2.542481        -1.002661
 H         2.555819         0.581655         2.130359
