19
Iteration:  3197charge 0 multiplicity 1
 C        -0.103325        -0.017450         0.034603
 C         1.430263         0.006755         0.050689
 C         2.371497        -1.256699         0.306759
 C         3.257333        -0.103323        -0.123297
 C         4.679036         0.537440        -0.235006
 C         4.417239         2.029768         0.032419
 O         3.064158         2.108228         0.711320
 C         2.507453         0.908659         0.941907
 O         2.136876         0.293973        -1.122113
 H        -0.349370        -0.359210         1.134359
 H        -0.614595         0.847213        -0.318510
 H        -0.482217        -0.842845        -0.558381
 H         2.426080        -1.562407         1.392806
 H         2.046136        -2.023988        -0.338804
 H         5.360092         0.239933         0.675707
 H         5.289087         0.543129        -1.138432
 H         5.151502         2.531246         0.602446
 H         4.348529         2.365848        -0.985260
 H         2.415860         0.620684         2.038628
