19
Iteration:  4507charge 0 multiplicity 1
 C        -0.014145         0.113164         0.134758
 C         1.450048         0.017532         0.065870
 C         2.365334        -1.240252         0.463872
 C         3.315163        -0.123541        -0.182013
 C         4.717668         0.512149        -0.158972
 C         4.320336         2.098411         0.132850
 O         2.845255         2.095902         0.590990
 C         2.499131         0.845056         0.729634
 O         2.229646         0.182951        -1.193212
 H        -0.312702        -0.293201         1.055446
 H        -0.260825         1.192688         0.145950
 H        -0.589745        -0.327030        -0.630561
 H         2.711626        -1.480197         1.508211
 H         2.165797        -2.166471        -0.087702
 H         5.323162         0.081821         0.656402
 H         5.461710         0.416000        -1.049695
 H         5.030697         2.494163         0.926516
 H         4.459705         2.473496        -0.917582
 H         2.483255         0.527712         1.816026
