19
Iteration:  3872
 C        -0.089480        -0.028866        -0.009360
 C         1.391582         0.024714         0.070405
 C         2.360178        -1.287697         0.230952
 C         3.275177        -0.070836        -0.013103
 C         4.680329         0.469909        -0.163736
 C         4.308726         2.018742        -0.143132
 O         3.066192         2.138319         0.745323
 C         2.534298         0.825301         1.026672
 O         2.242968         0.403389        -1.096396
 H        -0.585691        -0.196491         0.996703
 H        -0.577974         0.871723        -0.450268
 H        -0.269404        -0.956568        -0.628936
 H         2.400064        -1.893212         1.245929
 H         2.106840        -1.912319        -0.604082
 H         5.089047         0.180073         0.809832
 H         5.297542         0.169916        -0.962302
 H         5.001970         2.829778         0.325219
 H         4.042024         2.195164        -1.179011
 H         2.546297         0.690773         2.115233
