19
Iteration:   734
 C         0.061713         0.188340         0.012683
 C         1.507908        -0.022355         0.104769
 C         2.275868        -1.270528         0.326951
 C         3.284848        -0.131412        -0.093178
 C         4.689902         0.576176        -0.294294
 C         4.212476         1.969299         0.136005
 O         2.912187         2.062266         0.600756
 C         2.569062         0.700693         0.912203
 O         2.261090         0.365663        -1.062085
 H        -0.438944        -0.210620         0.925423
 H        -0.159922         1.275270        -0.131089
 H        -0.455378        -0.231027        -0.870450
 H         2.219041        -1.710898         1.370124
 H         2.235401        -2.106606        -0.453243
 H         5.436035         0.131045         0.427846
 H         5.055881         0.513056        -1.335470
 H         4.839510         2.356387         0.953038
 H         4.255647         2.681785        -0.691239
 H         2.540623         0.384096         1.955187
