19
Iteration:  1277
 C        -0.039197         0.110126        -0.065914
 C         1.386120        -0.027244         0.273212
 C         2.326267        -1.201062         0.294087
 C         3.270612        -0.119442        -0.115802
 C         4.644892         0.562177        -0.240225
 C         4.178113         1.990003        -0.124367
 O         3.006399         2.022761         0.733039
 C         2.625265         0.736396         0.983832
 O         2.353590         0.374072        -1.061360
 H        -0.773596        -0.372123         0.590812
 H        -0.411644         1.133715        -0.077232
 H        -0.160999        -0.283594        -1.107565
 H         2.596990        -1.560814         1.285501
 H         2.012572        -2.049323        -0.358113
 H         5.094417         0.242264         0.678494
 H         5.115890         0.287634        -1.093870
 H         4.998854         2.702132         0.305731
 H         3.935503         2.361475        -1.110586
 H         2.655005         0.629256         2.121018
