19
Iteration:  2631charge 0 multiplicity 1
 C         0.022895         0.190225        -0.032800
 C         1.473731        -0.080066         0.075222
 C         2.338225        -1.281018         0.359603
 C         3.280393        -0.043364        -0.064347
 C         4.635227         0.581146        -0.266415
 C         4.130732         2.044105        -0.122327
 O         3.058884         2.081229         0.871539
 C         2.533414         0.793332         0.985075
 O         2.229456         0.180524        -1.163301
 H        -0.475067         0.138929         0.927253
 H        -0.117044         1.186804        -0.490676
 H        -0.494958        -0.513845        -0.609871
 H         2.570086        -1.714037         1.324882
 H         2.388006        -2.081457        -0.374817
 H         5.323665         0.239763         0.520947
 H         5.198093         0.397568        -1.176911
 H         4.796949         2.651946         0.460393
 H         3.945661         2.644597        -1.089542
 H         2.796245         0.456526         2.006023
