19
Iteration:  1519charge 0 multiplicity 1
 C        -0.081082         0.153623         0.039691
 C         1.487019         0.011544         0.131064
 C         2.256535        -1.307146         0.257077
 C         3.396003        -0.177148        -0.022410
 C         4.721922         0.593413        -0.198943
 C         4.119571         2.022174        -0.102441
 O         2.984972         2.045813         0.753332
 C         2.628045         0.699586         0.882543
 O         2.267727         0.387762        -1.088926
 H        -0.481093         0.033832         1.083390
 H        -0.191993         1.180939        -0.382928
 H        -0.471541        -0.681498        -0.568713
 H         2.281266        -1.837039         1.253446
 H         2.029666        -1.978561        -0.510047
 H         5.290199         0.278853         0.695571
 H         5.336405         0.339323        -1.146942
 H         4.923529         2.760511         0.264834
 H         3.756106         2.596871        -1.051034
 H         2.673610         0.468441         1.929438
