19
Iteration:  4497
 C        -0.070620         0.179859         0.151121
 C         1.492706        -0.050625         0.055374
 C         2.359693        -1.337677         0.397254
 C         3.340467        -0.093803        -0.101094
 C         4.678233         0.525804        -0.107656
 C         4.270680         2.101037         0.107211
 O         2.903108         2.160369         0.515368
 C         2.594818         0.772202         0.854356
 O         2.193220         0.168771        -1.250903
 H        -0.483438        -0.222216         1.034368
 H        -0.130636         1.250608         0.194549
 H        -0.533460        -0.234716        -0.709908
 H         2.597239        -1.518469         1.491752
 H         2.159199        -2.187857        -0.227441
 H         5.080174         0.055463         0.849151
 H         5.454078         0.515321        -0.989373
 H         4.879189         2.750034         0.792568
 H         4.194562         2.699018        -0.846127
 H         2.767381         0.511697         1.917113
