19
Iteration:   186
 C         0.003098         0.132681         0.086927
 C         1.521918        -0.004061         0.083612
 C         2.194732        -1.353390         0.205696
 C         3.340698        -0.072431        -0.046795
 C         4.695413         0.453912        -0.117691
 C         4.187979         2.052510        -0.052700
 O         2.867874         2.072375         0.609672
 C         2.597415         0.742913         0.981097
 O         2.348293         0.423012        -1.105503
 H        -0.217395        -0.115212         1.093770
 H        -0.166861         1.172081         0.100938
 H        -0.515370        -0.375706        -0.689378
 H         2.243393        -1.751574         1.209166
 H         2.063605        -2.089605        -0.563392
 H         5.308096         0.165844         0.691018
 H         5.275675         0.111050        -0.987634
 H         4.780213         2.816646         0.527369
 H         3.954115         2.389243        -1.101302
 H         2.842821         0.381018         2.000053
