19
Iteration:  4168
 C         0.078826         0.179651         0.150908
 C         1.472565         0.026670        -0.062036
 C         2.356155        -1.207985         0.290475
 C         3.275491        -0.054802        -0.028699
 C         4.613387         0.503865        -0.128527
 C         4.127880         1.971981        -0.099059
 O         3.001265         2.090044         0.836320
 C         2.439923         0.780027         0.890331
 O         2.377676         0.167453        -1.241526
 H        -0.104742        -0.097052         1.227960
 H        -0.227010         1.265630         0.068460
 H        -0.623488        -0.405792        -0.464805
 H         2.404363        -1.516133         1.319937
 H         2.461870        -2.070028        -0.440479
 H         5.305092         0.155621         0.708929
 H         5.126311         0.498880        -1.117976
 H         4.752136         2.821133         0.054510
 H         3.665453         2.309467        -0.991146
 H         2.333991         0.571633         1.987082
