19
Iteration:  2523charge 0 multiplicity 1
 C        -0.005987         0.018061         0.086049
 C         1.455880         0.053002        -0.007845
 C         2.303092        -1.255375         0.418732
 C         3.236256        -0.104616        -0.042166
 C         4.665198         0.563387        -0.341057
 C         4.227874         1.977387         0.014418
 O         3.056504         2.139307         0.743210
 C         2.559620         0.821299         0.949995
 O         2.257648         0.276275        -1.177206
 H        -0.381424        -0.548488         1.000591
 H        -0.509894         1.048991         0.112359
 H        -0.335375        -0.495915        -0.804172
 H         2.354639        -1.607836         1.441076
 H         2.186585        -2.004670        -0.382624
 H         5.366427         0.085429         0.365035
 H         4.865621         0.423461        -1.422498
 H         5.018227         2.483279         0.719109
 H         4.188952         2.541947        -0.963163
 H         2.442651         0.602377         1.972408
