19
Iteration:  2842
 C        -0.086128         0.058471        -0.053997
 C         1.424103         0.013507         0.114610
 C         2.334548        -1.257301         0.299646
 C         3.220876        -0.090471        -0.126008
 C         4.764334         0.547723        -0.146315
 C         4.175099         2.048730        -0.170610
 O         3.130851         2.059133         0.860558
 C         2.589647         0.776657         0.952608
 O         2.178542         0.345791        -1.093227
 H        -0.428317        -0.146774         0.938656
 H        -0.476495         0.904858        -0.574167
 H        -0.359052        -0.878490        -0.594850
 H         2.425382        -1.724605         1.290186
 H         2.027213        -1.915323        -0.512888
 H         5.355913         0.437878         0.841935
 H         5.410668         0.392285        -1.049474
 H         4.903316         2.740606         0.166217
 H         3.819131         2.299243        -1.197722
 H         2.826032         0.300045         2.015327
