19
Iteration:  3617
 C         0.033865         0.328435         0.111868
 C         1.497149         0.008903         0.052748
 C         2.312898        -1.270258         0.341225
 C         3.321358        -0.184531         0.032635
 C         4.626189         0.620202        -0.211109
 C         4.057477         2.036214        -0.233319
 O         2.985744         2.060187         0.842093
 C         2.464545         0.734491         0.923953
 O         2.432965         0.119704        -1.226844
 H        -0.346360         0.027047         1.154867
 H         0.076871         1.408501         0.082827
 H        -0.505944        -0.031570        -0.751711
 H         2.376013        -1.728143         1.417667
 H         2.238767        -2.065201        -0.428850
 H         5.226362         0.590170         0.674887
 H         5.091748         0.270475        -1.072282
 H         4.825103         2.689485         0.167782
 H         3.676545         2.313480        -1.230836
 H         2.408302         0.408626         1.958538
