19
Iteration:  4023charge 0 multiplicity 1
 C        -0.068572         0.021494         0.023995
 C         1.387913        -0.008739         0.104298
 C         2.414290        -1.256744         0.238977
 C         3.290335        -0.026553        -0.050032
 C         4.675150         0.453569        -0.125361
 C         4.252607         1.990048        -0.037451
 O         3.010228         2.096929         0.628124
 C         2.547320         0.760253         0.948231
 O         2.218132         0.431922        -1.091953
 H        -0.450161         0.008321         1.082311
 H        -0.409020         0.894964        -0.531411
 H        -0.481235        -0.873566        -0.498775
 H         2.450454        -1.607624         1.316109
 H         2.318872        -2.089483        -0.434468
 H         5.291963         0.019969         0.777553
 H         5.245103         0.342385        -1.017421
 H         5.055022         2.676251         0.434022
 H         4.092132         2.574594        -0.948274
 H         2.764568         0.450875         2.039709
