19
Iteration:  2717
 C        -0.096808         0.049688         0.107259
 C         1.461778         0.001125         0.105251
 C         2.411979        -1.233365         0.261802
 C         3.338873        -0.091823        -0.038026
 C         4.668098         0.519247        -0.270593
 C         4.283335         1.989024         0.079132
 O         2.932966         2.081626         0.566540
 C         2.476871         0.851767         0.974076
 O         2.284910         0.321191        -1.122194
 H        -0.427161        -0.445458         1.032064
 H        -0.400487         1.133834         0.061308
 H        -0.524799        -0.482386        -0.761479
 H         2.411800        -1.657428         1.333077
 H         2.248560        -1.935840        -0.614877
 H         5.234387        -0.059616         0.461224
 H         5.032250         0.401284        -1.284279
 H         4.984355         2.393581         0.795345
 H         4.528397         2.573633        -0.865823
 H         2.419615         0.660438         2.135198
