19
Iteration:  1978
 C        -0.039057         0.010287         0.093758
 C         1.441829         0.050573         0.041372
 C         2.380564        -1.264114         0.303441
 C         3.254374        -0.108209        -0.141308
 C         4.588931         0.529679        -0.275159
 C         4.335258         2.080489         0.064183
 O         3.073407         2.127510         0.716882
 C         2.529106         0.789913         0.925209
 O         2.194063         0.277522        -1.116293
 H        -0.300970        -0.436979         1.058620
 H        -0.584832         0.957615         0.183877
 H        -0.532485        -0.510318        -0.809166
 H         2.386471        -1.736469         1.336973
 H         2.109254        -2.095520        -0.458560
 H         5.169949         0.001062         0.557746
 H         5.049756         0.414366        -1.294264
 H         5.149794         2.557700         0.595345
 H         4.220696         2.755718        -0.839163
 H         2.685037         0.604501         1.951721
