19
Iteration:  4426
 C        -0.014007         0.087236        -0.175188
 C         1.477825         0.038450         0.144845
 C         2.283518        -1.314016         0.436631
 C         3.306508        -0.129122        -0.021350
 C         4.630425         0.552649        -0.257280
 C         4.082988         2.086014        -0.220068
 O         3.146137         2.088331         0.845084
 C         2.523812         0.795890         1.052224
 O         2.318187         0.263206        -1.098702
 H        -0.554333        -0.112785         0.816451
 H        -0.131152         1.076972        -0.621037
 H        -0.114194        -0.779858        -0.890598
 H         2.244003        -1.701338         1.444970
 H         1.986612        -1.989601        -0.398856
 H         5.321338         0.439412         0.525640
 H         5.034103         0.332030        -1.182261
 H         4.825990         2.891227        -0.026186
 H         3.674025         2.287789        -1.221071
 H         2.324026         0.577549         2.137685
