19
Iteration:  1633
 C        -0.124259         0.036024         0.011046
 C         1.427588        -0.081891         0.125088
 C         2.471912        -1.282680         0.263087
 C         3.249667        -0.029018        -0.080233
 C         4.611953         0.502482        -0.187587
 C         4.267359         2.015965        -0.097327
 O         3.100941         2.075876         0.710815
 C         2.502163         0.807918         0.979282
 O         2.212468         0.428580        -1.076282
 H        -0.580681        -0.405713         0.935404
 H        -0.164063         1.135910         0.123688
 H        -0.763885        -0.356864        -0.844668
 H         2.682488        -1.810873         1.183095
 H         2.208818        -2.067905        -0.549301
 H         5.241373         0.085714         0.613892
 H         4.911697         0.229169        -1.173860
 H         5.157095         2.502517         0.422641
 H         4.399798         2.539676        -1.042274
 H         2.539196         0.509611         2.053541
