19
Iteration:   783
 C        -0.062442         0.040896         0.091603
 C         1.445760        -0.027633         0.026384
 C         2.362315        -1.254427         0.212367
 C         3.248133        -0.109891        -0.054569
 C         4.699615         0.453731        -0.142074
 C         4.314017         2.023571         0.031331
 O         3.050437         2.122346         0.752209
 C         2.489338         0.800846         0.908959
 O         2.207453         0.376526        -1.215278
 H        -0.352515         0.112625         1.156377
 H        -0.379446         0.973971        -0.427513
 H        -0.684511        -0.743532        -0.392271
 H         2.465632        -1.674504         1.211311
 H         2.094733        -2.014526        -0.457845
 H         5.247068         0.180586         0.768786
 H         5.377730         0.479031        -1.062736
 H         5.084815         2.520404         0.652279
 H         4.248720         2.579540        -0.930782
 H         2.334222         0.533261         2.031169
