19
Iteration:  2282
 C        -0.007405         0.197534         0.079832
 C         1.469613        -0.022549         0.210138
 C         2.434165        -1.346157         0.251380
 C         3.237532        -0.036847        -0.108394
 C         4.585974         0.529228        -0.211103
 C         4.209426         2.051124        -0.026349
 O         2.991903         2.064425         0.639565
 C         2.593947         0.765363         0.936734
 O         2.222128         0.268431        -1.070237
 H        -0.551343         0.344404         1.001313
 H        -0.143886         1.150205        -0.476207
 H        -0.406552        -0.529483        -0.681404
 H         2.450699        -1.781878         1.359568
 H         2.436469        -1.982786        -0.643133
 H         5.171555        -0.086447         0.486964
 H         5.126292         0.382389        -1.202496
 H         4.938343         2.698987         0.492325
 H         4.021204         2.497212        -0.944809
 H         2.773890         0.379907         1.948437
