19
Iteration:  3714
 C        -0.091822        -0.087002         0.069245
 C         1.419109         0.081075         0.012777
 C         2.327562        -1.207073         0.353193
 C         3.199134        -0.007642        -0.072288
 C         4.596366         0.450023        -0.281810
 C         4.373993         2.000541         0.091533
 O         3.077471         2.132713         0.681425
 C         2.508274         0.899245         0.960571
 O         2.296044         0.268969        -1.177299
 H        -0.201222        -0.391869         1.177711
 H        -0.576921         0.828674        -0.203776
 H        -0.375114        -0.900844        -0.578489
 H         2.549862        -1.561641         1.362533
 H         2.112485        -2.045582        -0.299779
 H         5.249659        -0.013373         0.386390
 H         4.909624         0.401951        -1.309177
 H         5.220189         2.439489         0.712519
 H         4.185477         2.571019        -0.916513
 H         2.482739         0.753804         2.032417
