19
Iteration:  3556charge 0 multiplicity 1
 C        -0.078275         0.043839        -0.036120
 C         1.428110         0.001480         0.054150
 C         2.353678        -1.311991         0.318109
 C         3.264069        -0.086755         0.057595
 C         4.598449         0.473313        -0.285667
 C         4.275327         1.982944        -0.067474
 O         3.020043         2.142849         0.614560
 C         2.576774         0.854585         1.041939
 O         2.280122         0.364990        -1.006024
 H        -0.490691        -0.236559         0.893781
 H        -0.453132         1.092478        -0.220519
 H        -0.561549        -0.566644        -0.842920
 H         2.512750        -1.722652         1.262225
 H         2.425934        -2.112387        -0.467119
 H         5.426281         0.029334         0.393050
 H         4.919527         0.153718        -1.318869
 H         5.020596         2.622382         0.500540
 H         4.105570         2.442120        -1.042293
 H         2.796780         0.741401         2.152615
