19
Iteration:  4343charge 0 multiplicity 1
 C        -0.020626         0.064937         0.114712
 C         1.496851         0.010453         0.147829
 C         2.271720        -1.279709         0.204102
 C         3.291616        -0.097407         0.036246
 C         4.613029         0.495471        -0.209821
 C         4.266043         2.037475         0.052210
 O         2.901589         2.102763         0.440906
 C         2.576642         0.838699         0.973527
 O         2.345051         0.290467        -1.058784
 H        -0.495374        -0.158102         1.063228
 H        -0.365769         1.075374        -0.265087
 H        -0.249443        -0.637269        -0.719266
 H         2.331822        -1.810689         1.166198
 H         2.128591        -2.061136        -0.656906
 H         5.415820         0.333689         0.640374
 H         5.065777         0.220294        -1.290879
 H         4.810106         2.431146         0.944406
 H         4.241208         2.671903        -0.832160
 H         2.749706         0.856589         2.039071
