19
Iteration:  1110
 C        -0.052955         0.084501        -0.006777
 C         1.447140         0.077264         0.116248
 C         2.226018        -1.333209         0.402667
 C         3.320718        -0.156881        -0.088856
 C         4.669798         0.536068        -0.271389
 C         4.197913         1.985608        -0.110192
 O         3.051339         2.106305         0.789842
 C         2.582862         0.817338         0.946276
 O         2.331175         0.346293        -1.113007
 H        -0.564173        -0.406068         0.865371
 H        -0.603087         1.064124        -0.077085
 H        -0.248698        -0.416811        -0.960941
 H         2.271246        -1.808243         1.400043
 H         1.854393        -1.940382        -0.400034
 H         5.335956         0.285160         0.536560
 H         5.073888         0.408305        -1.296703
 H         5.003713         2.661110         0.379041
 H         4.004010         2.512696        -1.084667
 H         2.585071         0.325356         1.991505
