19
Iteration:   142
 C        -0.133260         0.092514        -0.077503
 C         1.367829        -0.054951        -0.004256
 C         2.450891        -1.281724         0.342669
 C         3.224040        -0.014302         0.009718
 C         4.660477         0.493844        -0.211546
 C         4.264856         2.002216        -0.133690
 O         3.128676         2.137062         0.909357
 C         2.526442         0.809740         0.962328
 O         2.218456         0.325139        -1.131208
 H        -0.440039        -0.560872         0.696740
 H        -0.465322         1.072129         0.124920
 H        -0.463704        -0.303831        -1.018006
 H         2.481881        -1.671899         1.351250
 H         2.539602        -2.081815        -0.339103
 H         5.410984         0.150684         0.437876
 H         4.880560         0.184025        -1.250104
 H         5.148899         2.601116         0.120902
 H         3.981422         2.290699        -1.186441
 H         2.559761         0.415863         2.001533
