19
Iteration:  1501
 C        -0.031732         0.085252         0.068671
 C         1.463011         0.090839         0.044149
 C         2.290490        -1.302487         0.224047
 C         3.259470        -0.108675        -0.034283
 C         4.683025         0.513021        -0.251840
 C         4.225903         2.016000        -0.099067
 O         2.973297         2.063655         0.733421
 C         2.500715         0.759524         1.069911
 O         2.388651         0.365718        -1.092463
 H        -0.371742        -0.220110         1.054016
 H        -0.646167         0.952521        -0.080185
 H        -0.428769        -0.720748        -0.588087
 H         2.316847        -1.755822         1.212272
 H         2.217595        -2.022686        -0.627978
 H         5.512617         0.225033         0.344968
 H         5.057990         0.385501        -1.217846
 H         4.965158         2.689371         0.287443
 H         3.936894         2.418136        -1.058508
 H         2.485652         0.592869         2.195987
