19
Iteration:   283charge 0 multiplicity 1
 C        -0.038204         0.004050        -0.062845
 C         1.463612        -0.001332         0.026494
 C         2.328432        -1.300559         0.226462
 C         3.244165        -0.083366         0.042177
 C         4.599015         0.530134        -0.334738
 C         4.275025         1.918278        -0.033115
 O         3.045913         2.180906         0.834645
 C         2.516408         0.851742         1.003504
 O         2.298832         0.370316        -1.062759
 H        -0.491405        -0.194902         0.937108
 H        -0.301925         1.007847        -0.369324
 H        -0.341113        -0.811836        -0.751089
 H         2.280733        -1.708838         1.257325
 H         2.103223        -2.083447        -0.495882
 H         5.391793         0.167539         0.343958
 H         4.919123         0.307141        -1.405492
 H         5.063516         2.337019         0.527986
 H         4.097710         2.693334        -0.796021
 H         2.626420         0.499095         2.026133
