19
Iteration:  1738
 C         0.013281         0.312492        -0.053293
 C         1.445723        -0.015336         0.181929
 C         2.442585        -1.380161         0.283413
 C         3.287925        -0.162262        -0.102957
 C         4.601653         0.583857        -0.349645
 C         4.132117         2.039910        -0.061190
 O         2.942958         2.054025         0.780101
 C         2.619804         0.725526         1.026883
 O         2.243801         0.297517        -1.033799
 H        -0.372731         0.223300         0.926125
 H        -0.051566         1.284476        -0.465556
 H        -0.363710        -0.408949        -0.791472
 H         2.743608        -1.890745         1.189781
 H         2.133381        -2.030945        -0.548049
 H         5.279380         0.261098         0.447168
 H         5.154428         0.439060        -1.255825
 H         4.944090         2.430803         0.430034
 H         3.829556         2.457941        -1.011084
 H         2.716776         0.411096         2.078063
