19
Iteration:  1149charge 0 multiplicity 1
 C        -0.086489         0.059317        -0.031148
 C         1.461586         0.033570         0.091216
 C         2.401455        -1.339655         0.347021
 C         3.243987        -0.080436         0.017219
 C         4.573428         0.521226        -0.312275
 C         4.323274         1.949413        -0.025623
 O         3.106879         2.158351         0.798287
 C         2.470008         0.855934         0.909488
 O         2.215636         0.335476        -1.106645
 H        -0.603701        -0.075108         0.913232
 H        -0.400034         0.960490        -0.539699
 H        -0.444893        -0.822568        -0.603082
 H         2.501053        -1.817791         1.351056
 H         2.312865        -2.065690        -0.477768
 H         5.472193         0.083096         0.228245
 H         5.083264         0.330965        -1.332879
 H         5.180207         2.329784         0.477234
 H         4.113134         2.542056        -0.953334
 H         2.501217         0.700447         1.960664
