19
Iteration:   843
 C        -0.016165         0.202265        -0.129976
 C         1.460944        -0.000515         0.029348
 C         2.410413        -1.356924         0.283809
 C         3.246258        -0.107878         0.127505
 C         4.570425         0.504511        -0.325295
 C         4.191548         1.973224        -0.156921
 O         3.016012         2.084074         0.855415
 C         2.523785         0.801444         1.015214
 O         2.350115         0.368735        -0.996488
 H        -0.409039        -0.189657         0.808104
 H        -0.156939         1.280715        -0.326190
 H        -0.445785        -0.381494        -0.955786
 H         2.345057        -1.984666         1.209291
 H         2.348522        -1.990193        -0.698772
 H         5.464592         0.118034         0.177128
 H         4.842848         0.345406        -1.348120
 H         4.927832         2.663239         0.320160
 H         3.659396         2.329255        -1.059887
 H         2.447039         0.426444         2.056145
