19
Iteration:  1224charge 0 multiplicity 1
 C        -0.042953         0.195668         0.154830
 C         1.418454        -0.011559         0.063267
 C         2.291342        -1.274014         0.306860
 C         3.274566        -0.116517        -0.050413
 C         4.629185         0.563130        -0.221645
 C         4.199008         1.998711        -0.008609
 O         2.918915         2.127204         0.703916
 C         2.553974         0.722703         0.911919
 O         2.466724         0.235139        -1.223079
 H        -0.364559         0.040903         1.215176
 H        -0.267326         1.279877        -0.002373
 H        -0.669580        -0.391019        -0.581866
 H         2.080392        -1.636172         1.395504
 H         2.427706        -2.034153        -0.529207
 H         5.362400         0.199063         0.494723
 H         4.948828         0.311102        -1.218410
 H         4.976910         2.483164         0.595126
 H         4.205199         2.617108        -0.900069
 H         2.772071         0.444474         1.990974
