19
Iteration:  4852
 C        -0.085952         0.172743        -0.054250
 C         1.435642        -0.041499         0.030235
 C         2.497345        -1.268022         0.497686
 C         3.271207        -0.084236        -0.057968
 C         4.611471         0.476886        -0.241522
 C         4.281175         1.991041         0.000400
 O         2.934621         2.146896         0.605022
 C         2.536905         0.822992         0.960054
 O         2.267775         0.222251        -1.128406
 H        -0.354794        -0.239793         0.872930
 H        -0.305482         1.239084         0.007491
 H        -0.601346        -0.327817        -0.801153
 H         2.745296        -1.407632         1.554133
 H         2.425822        -2.132032        -0.102159
 H         5.336625         0.072928         0.546845
 H         4.942070         0.283823        -1.297159
 H         4.904568         2.452137         0.798677
 H         4.102097         2.720982        -0.856640
 H         2.514090         0.642596         2.060696
