19
Iteration:  4299
 C        -0.023430         0.213204         0.177357
 C         1.475116        -0.043169         0.069392
 C         2.469439        -1.189013         0.400120
 C         3.292634        -0.082189        -0.139542
 C         4.566816         0.551247        -0.173033
 C         4.265757         2.032719         0.156357
 O         2.923931         2.138481         0.576225
 C         2.525873         0.790400         0.822461
 O         2.216089         0.098296        -1.280435
 H        -0.302490        -0.249234         1.076293
 H        -0.058190         1.304822         0.249509
 H        -0.425981        -0.152445        -0.741039
 H         2.505682        -1.579123         1.393904
 H         2.477111        -2.103176        -0.297970
 H         5.071922         0.000245         0.741125
 H         5.185323         0.336933        -1.141181
 H         4.887219         2.194742         1.049033
 H         4.462881         2.728515        -0.666197
 H         2.604670         0.501684         1.863743
