19
Iteration:   757charge 0 multiplicity 1
 C        -0.033282         0.165922         0.114148
 C         1.450617         0.026115         0.075103
 C         2.384762        -1.323206         0.165022
 C         3.210083        -0.083300        -0.017254
 C         4.619078         0.432601        -0.204989
 C         4.331993         2.052031         0.085720
 O         2.917195         2.154387         0.623823
 C         2.491018         0.737629         1.003454
 O         2.357907         0.327902        -1.169580
 H        -0.283192        -0.133968         1.155854
 H        -0.539904         1.087591        -0.256531
 H        -0.514493        -0.636092        -0.524431
 H         2.439036        -1.875106         1.149755
 H         2.284282        -2.112912        -0.693066
 H         5.364276         0.024078         0.500781
 H         4.984748         0.404456        -1.308097
 H         5.038824         2.422371         0.842182
 H         4.415592         2.623160        -0.837181
 H         2.480111         0.444889         2.077966
