19
Iteration:  1675charge 0 multiplicity 1
 C         0.004478         0.026713         0.109805
 C         1.443628         0.096706         0.127951
 C         2.283206        -1.208834         0.316371
 C         3.252521        -0.147582        -0.080312
 C         4.655401         0.491331        -0.230608
 C         4.253762         2.057797        -0.021520
 O         3.040782         2.031344         0.751940
 C         2.560358         0.762435         0.918497
 O         2.305684         0.367237        -1.226337
 H        -0.317538        -0.371551         1.060734
 H        -0.671297         0.840711        -0.041336
 H        -0.314403        -0.733317        -0.624522
 H         2.407382        -1.631657         1.238147
 H         1.854923        -1.867899        -0.522670
 H         5.332457         0.166295         0.494499
 H         5.003205         0.345993        -1.165960
 H         4.940654         2.816344         0.508802
 H         3.786679         2.584326        -0.940150
 H         2.525338         0.584585         1.932382
