19
Iteration:  4446charge 0 multiplicity 1
 C         0.012662         0.155403        -0.088146
 C         1.503018         0.030775         0.097991
 C         2.345577        -1.260170         0.330592
 C         3.307481        -0.113782         0.099808
 C         4.619288         0.459004        -0.241821
 C         4.093332         1.939298        -0.230997
 O         2.898421         2.062457         0.722117
 C         2.553115         0.782315         0.997295
 O         2.399221         0.374302        -1.024023
 H        -0.325848        -0.123997         0.974278
 H        -0.232482         1.206691        -0.315939
 H        -0.355389        -0.582431        -0.890213
 H         2.322874        -1.505524         1.420682
 H         2.534423        -2.123515        -0.239242
 H         5.455442         0.401211         0.456231
 H         4.951702         0.394277        -1.271623
 H         4.782264         2.583189         0.245354
 H         3.766018         2.428827        -1.141194
 H         2.648380         0.470599         2.054417
