19
Iteration:  1183charge 0 multiplicity 1
 C        -0.030854         0.147887         0.012394
 C         1.441308        -0.045559         0.126466
 C         2.379897        -1.290791         0.265861
 C         3.277401        -0.057986         0.031130
 C         4.613995         0.507630        -0.221812
 C         4.305614         1.965183         0.025452
 O         2.960977         2.067799         0.624876
 C         2.630274         0.816333         0.961909
 O         2.174068         0.336405        -1.129120
 H        -0.487135         0.377718         0.981074
 H        -0.268798         1.045356        -0.548731
 H        -0.569163        -0.664283        -0.471664
 H         2.487285        -1.818931         1.224256
 H         2.404869        -1.943030        -0.570271
 H         5.224680         0.230948         0.667619
 H         5.085869         0.401364        -1.268044
 H         4.996404         2.465527         0.674623
 H         4.283288         2.516103        -0.955387
 H         2.788492         0.461223         1.950784
