19
Iteration:  4750
 C        -0.009190         0.052424        -0.163785
 C         1.432433        -0.011539         0.112319
 C         2.297349        -1.277958         0.425134
 C         3.262785        -0.068277         0.074616
 C         4.586438         0.587080        -0.254219
 C         4.219235         2.048001        -0.185568
 O         3.117480         2.123895         0.771339
 C         2.536569         0.819399         1.007241
 O         2.276657         0.185379        -1.080993
 H        -0.563073         0.038265         0.773743
 H        -0.107407         0.962766        -0.688549
 H        -0.249898        -0.733218        -0.892984
 H         2.362566        -1.771641         1.397329
 H         2.027031        -2.072462        -0.316234
 H         5.443376         0.516604         0.501224
 H         4.887250         0.372548        -1.295942
 H         5.064723         2.727659         0.247190
 H         3.858600         2.640701        -1.009529
 H         2.589625         0.629375         2.091578
