19
Iteration:  3853
 C         0.043825         0.040504        -0.023728
 C         1.459314        -0.030045         0.149761
 C         2.392716        -1.243325         0.289441
 C         3.191229        -0.038468        -0.110299
 C         4.557219         0.505847        -0.163765
 C         4.236039         1.990233        -0.029647
 O         3.086886         2.163755         0.828053
 C         2.535141         0.871099         0.879947
 O         2.217936         0.244522        -1.168043
 H        -0.525063         0.074519         0.952802
 H        -0.195672         0.962289        -0.459960
 H        -0.361005        -0.747103        -0.584595
 H         2.549795        -1.759103         1.311244
 H         2.306459        -1.995100        -0.420730
 H         5.121850         0.222006         0.748806
 H         4.956549         0.406355        -1.284856
 H         5.117637         2.313329         0.445533
 H         4.110374         2.365573        -1.047968
 H         2.578773         0.531285         1.915409
