19
Iteration:   287
 C        -0.006053        -0.008540        -0.043546
 C         1.464327        -0.002562         0.004212
 C         2.325046        -1.314932         0.241851
 C         3.223975        -0.089608         0.054347
 C         4.604685         0.518355        -0.324198
 C         4.294422         1.901601        -0.077521
 O         3.038937         2.171318         0.821267
 C         2.485136         0.886512         1.021774
 O         2.300353         0.424874        -1.068395
 H        -0.360618        -0.382075         0.928194
 H        -0.213556         1.023759        -0.330834
 H        -0.378895        -0.825623        -0.659243
 H         2.235760        -1.937822         1.156562
 H         2.088839        -2.090028        -0.551096
 H         5.356839         0.273353         0.489015
 H         4.854914         0.337979        -1.336582
 H         5.145641         2.361787         0.584844
 H         4.156921         2.665386        -0.854323
 H         2.512054         0.407482         2.042947
