19
Iteration:  4726
 C        -0.055810         0.033108        -0.198307
 C         1.442458         0.106867         0.083355
 C         2.235397        -1.179520         0.553496
 C         3.385027        -0.157214        -0.012653
 C         4.655869         0.479552        -0.345694
 C         4.078968         2.008570        -0.191248
 O         3.075493         2.127296         0.931303
 C         2.549704         0.781440         0.952483
 O         2.373837         0.260169        -1.112700
 H        -0.486744        -0.279562         0.795358
 H        -0.427244         1.029448        -0.599365
 H        -0.138913        -0.722785        -1.064952
 H         2.417199        -1.476713         1.652300
 H         2.138007        -2.155518         0.099006
 H         5.513313         0.294888         0.338202
 H         4.948765         0.462935        -1.418111
 H         4.751261         2.892606         0.080416
 H         3.566523         2.393688        -1.093203
 H         2.559752         0.539969         2.059363
