19
Iteration:   619charge 0 multiplicity 1
 C        -0.090633         0.119783         0.011599
 C         1.402972         0.038851         0.043669
 C         2.490507        -1.339722         0.095810
 C         3.255418        -0.026172         0.070426
 C         4.659824         0.399383        -0.112666
 C         4.209413         1.958324        -0.100084
 O         3.061672         2.090943         0.758416
 C         2.544324         0.790343         0.964566
 O         2.206185         0.447485        -1.068036
 H        -0.376891         0.014063         1.063487
 H        -0.503033         0.971297        -0.512447
 H        -0.469105        -0.798448        -0.475956
 H         2.442679        -1.944489         0.998181
 H         2.573412        -2.064919        -0.771658
 H         5.120182         0.309016         0.818587
 H         5.301736         0.232575        -1.036607
 H         4.966416         2.670018         0.364537
 H         3.900570         2.279070        -1.145278
 H         2.619114         0.487552         2.009883
