19
Iteration:   998
 C        -0.086265         0.115352        -0.095664
 C         1.486359         0.040164         0.071591
 C         2.462019        -1.258998         0.375201
 C         3.269184        -0.013966        -0.022530
 C         4.585984         0.475813        -0.313799
 C         4.317919         1.938893        -0.019565
 O         3.055273         2.075335         0.833072
 C         2.446759         0.853422         0.990597
 O         2.198547         0.251307        -1.163130
 H        -0.297005         0.313829         0.961510
 H        -0.314062         1.070188        -0.571941
 H        -0.665749        -0.725948        -0.526827
 H         2.723973        -1.716262         1.345998
 H         2.437518        -2.006900        -0.414861
 H         5.314847         0.377699         0.411944
 H         4.766951         0.211852        -1.408372
 H         5.017178         2.532952         0.635228
 H         4.208927         2.550618        -0.999878
 H         2.484569         0.408405         2.055275
