19
Iteration:  3241charge 0 multiplicity 1
 C         0.025828         0.150028         0.047683
 C         1.504959         0.053875         0.107546
 C         2.360797        -1.339056         0.292257
 C         3.301378        -0.099612        -0.021842
 C         4.640094         0.538219        -0.311437
 C         4.286607         1.973023         0.015423
 O         2.870238         2.110780         0.582397
 C         2.494430         0.785124         0.993092
 O         2.272905         0.313065        -1.037388
 H        -0.427395        -0.159012         1.030547
 H        -0.182248         1.162855        -0.234234
 H        -0.364536        -0.488774        -0.740155
 H         2.513285        -1.726292         1.322475
 H         2.372467        -2.096682        -0.466888
 H         5.367220        -0.022627         0.352233
 H         4.842429         0.416907        -1.374557
 H         4.997211         2.320690         0.697898
 H         4.317222         2.556115        -0.908003
 H         2.423792         0.571809         2.160663
