19
Iteration:  2358
 C         0.015650         0.134457        -0.062024
 C         1.452870        -0.029747         0.149043
 C         2.351974        -1.268269         0.300954
 C         3.272095        -0.118072        -0.002077
 C         4.639245         0.493869        -0.256647
 C         4.182926         2.036878        -0.179227
 O         3.074953         2.075414         0.753841
 C         2.627145         0.795112         0.978327
 O         2.151260         0.354408        -1.012856
 H        -0.470186        -0.485668         0.716864
 H        -0.502015         1.138076        -0.012623
 H        -0.073143        -0.367657        -1.120423
 H         2.506853        -1.722532         1.379115
 H         2.311295        -1.956376        -0.499736
 H         5.280514         0.335927         0.632397
 H         5.105210         0.148281        -1.254566
 H         4.845902         2.889147         0.125504
 H         3.730132         2.273299        -1.061963
 H         2.666477         0.394614         2.140765
