19
Iteration:  2790charge 0 multiplicity 1
 C        -0.039375         0.199662         0.065336
 C         1.525207        -0.017777         0.058083
 C         2.348434        -1.349190         0.281759
 C         3.332985        -0.163405         0.045983
 C         4.619685         0.514746        -0.378897
 C         4.167759         2.043255         0.003211
 O         2.905752         2.110279         0.708991
 C         2.517081         0.754976         1.009688
 O         2.370646         0.300857        -1.081561
 H        -0.487699         0.028372         1.011362
 H        -0.103620         1.229933        -0.324132
 H        -0.556838        -0.454246        -0.723622
 H         2.312274        -1.798783         1.266681
 H         2.334219        -1.950686        -0.578716
 H         5.546360         0.343684         0.236214
 H         4.847310         0.546173        -1.486733
 H         5.048296         2.678616         0.417614
 H         4.027700         2.528396        -0.925135
 H         2.472103         0.530612         2.085704
