19
Iteration:   805
 C        -0.030271         0.062275        -0.028935
 C         1.469096         0.079372         0.044764
 C         2.267265        -1.303751         0.321297
 C         3.234334        -0.031703        -0.145929
 C         4.574911         0.544894        -0.158925
 C         4.288603         2.023065        -0.020166
 O         3.058475         2.057176         0.825184
 C         2.619472         0.754661         0.901806
 O         2.239957         0.352780        -1.114459
 H        -0.435306        -0.054297         0.998952
 H        -0.520169         0.848721        -0.639054
 H        -0.349213        -0.831794        -0.618791
 H         2.276625        -1.728418         1.315145
 H         2.228362        -2.094983        -0.366784
 H         4.963826         0.189528         0.819063
 H         5.313329         0.282023        -1.075910
 H         5.147137         2.595036         0.364400
 H         4.066606         2.385691        -1.043579
 H         2.975480         0.363030         1.944273
