19
Iteration:  2404
 C         0.022633         0.136568         0.159873
 C         1.508872         0.019265         0.016948
 C         2.351198        -1.283770         0.281891
 C         3.333830        -0.111076         0.030321
 C         4.626271         0.526967        -0.233486
 C         4.208295         2.025570        -0.034524
 O         2.953532         2.105688         0.654511
 C         2.509522         0.743866         0.908194
 O         2.251077         0.266389        -1.143727
 H        -0.276680        -0.029867         1.227114
 H        -0.175031         1.263102         0.106676
 H        -0.597881        -0.329801        -0.586108
 H         2.314866        -1.806950         1.319366
 H         2.223645        -1.947530        -0.597254
 H         5.514236         0.294482         0.391069
 H         4.820410         0.380854        -1.319959
 H         4.825055         2.588642         0.665497
 H         4.268086         2.451250        -0.980896
 H         2.604249         0.542716         2.080353
