19
Iteration:   701
 C        -0.035645         0.257401        -0.100552
 C         1.426019        -0.058591         0.101847
 C         2.448867        -1.382690         0.319939
 C         3.268514        -0.127640        -0.065932
 C         4.539277         0.548205        -0.363495
 C         4.232256         2.026943         0.117879
 O         3.010336         2.206703         0.779825
 C         2.565396         0.762738         0.923350
 O         2.250024         0.182971        -1.083120
 H        -0.658522        -0.255142         0.669278
 H        -0.052177         1.344290         0.190983
 H        -0.486577         0.122607        -1.102397
 H         2.527027        -1.864497         1.347441
 H         2.385826        -2.048417        -0.574559
 H         5.364670         0.239665         0.345401
 H         5.022439         0.576508        -1.320817
 H         5.031429         2.165884         0.845785
 H         4.405889         2.712304        -0.700101
 H         2.477499         0.504042         1.991357
