19
Iteration:  3340charge 0 multiplicity 1
 C        -0.014084        -0.003670         0.024340
 C         1.443394         0.037991         0.112578
 C         2.313953        -1.230463         0.206686
 C         3.276946        -0.138743         0.095611
 C         4.617792         0.471796        -0.211284
 C         4.157762         1.984187        -0.170737
 O         3.101747         2.153571         0.716132
 C         2.479448         0.805571         1.014158
 O         2.358108         0.391244        -1.057872
 H        -0.495651        -0.208214         0.949305
 H        -0.311748         0.918765        -0.500352
 H        -0.191333        -0.828765        -0.694989
 H         2.325229        -1.705465         1.173485
 H         2.114676        -1.804355        -0.758415
 H         5.351041         0.198055         0.524157
 H         5.055060         0.102984        -1.158130
 H         4.898694         2.625370         0.145102
 H         3.766243         2.179759        -1.172242
 H         2.358076         0.744507         2.146497
