19
Iteration:   207
 C        -0.019167         0.308977         0.122086
 C         1.476835         0.000691         0.046795
 C         2.406838        -1.323590         0.212408
 C         3.336425        -0.154149         0.018978
 C         4.624697         0.559207        -0.217738
 C         4.198721         1.966823        -0.031777
 O         2.888138         2.043163         0.649117
 C         2.447559         0.708719         0.951703
 O         2.396082         0.304821        -1.094755
 H        -0.316512         0.139072         1.148036
 H        -0.353992         1.292033        -0.140103
 H        -0.489620        -0.390378        -0.546736
 H         2.428593        -1.767391         1.203498
 H         2.457932        -1.953959        -0.649710
 H         5.459292         0.313297         0.396333
 H         5.042887         0.430584        -1.254803
 H         4.820756         2.460049         0.705503
 H         4.051047         2.584533        -0.947429
 H         2.213985         0.570796         2.018418
