19
Iteration:   391charge 0 multiplicity 1
 C         0.078023         0.323747        -0.105282
 C         1.470816        -0.047831         0.103159
 C         2.364565        -1.345506         0.321013
 C         3.346250        -0.198922        -0.000654
 C         4.548650         0.557292        -0.378584
 C         4.062467         2.045395         0.005199
 O         2.929183         2.026165         0.803078
 C         2.571087         0.703959         1.008143
 O         2.368728         0.336738        -1.058941
 H        -0.440488         0.282189         0.870810
 H         0.058705         1.382731        -0.388553
 H        -0.453438        -0.205829        -0.929866
 H         2.408836        -1.738684         1.316412
 H         2.309475        -2.128274        -0.475365
 H         5.492397         0.206840         0.024128
 H         4.717788         0.569861        -1.502059
 H         4.879791         2.328595         0.588660
 H         3.929849         2.748618        -0.839422
 H         2.552212         0.335905         2.036892
