19
Iteration:  4641charge 0 multiplicity 1
 C         0.035468         0.155251         0.166765
 C         1.548448        -0.022756         0.023243
 C         2.319020        -1.325097         0.372627
 C         3.284356        -0.135193        -0.016254
 C         4.660629         0.505006        -0.122967
 C         4.255017         2.026149         0.018286
 O         2.829618         2.128409         0.542297
 C         2.496192         0.836068         0.875484
 O         2.335767         0.243744        -1.238645
 H        -0.285365        -0.080548         1.170652
 H        -0.150367         1.166306         0.072279
 H        -0.624047        -0.421514        -0.446058
 H         2.293598        -1.527752         1.451498
 H         2.200638        -2.092562        -0.396918
 H         5.336374         0.147491         0.747726
 H         5.235573         0.500323        -1.119908
 H         4.963759         2.505000         0.822928
 H         4.292553         2.586695        -0.911700
 H         2.421951         0.836278         1.963391
