19
Iteration:  3389charge 0 multiplicity 1
 C        -0.072324         0.145167        -0.055387
 C         1.448486        -0.058899         0.138443
 C         2.401768        -1.309702         0.376558
 C         3.223189        -0.044741        -0.123026
 C         4.626080         0.596405        -0.155900
 C         4.247146         1.982993        -0.089226
 O         3.078579         2.095332         0.755905
 C         2.527425         0.823714         0.911078
 O         2.226138         0.230630        -1.114142
 H        -0.564475        -0.197053         0.918474
 H        -0.195640         1.205853        -0.217014
 H        -0.430306        -0.426365        -0.907018
 H         2.467550        -1.604747         1.440450
 H         2.360790        -2.007404        -0.385751
 H         5.406743         0.188063         0.615593
 H         5.191680         0.461425        -1.104067
 H         5.038314         2.672311         0.471840
 H         3.962069         2.365496        -1.091473
 H         2.588057         0.557239         1.995241
