19
Iteration:  4527
 C        -0.052538         0.017754         0.098074
 C         1.463768        -0.005479         0.022710
 C         2.373957        -1.232896         0.407773
 C         3.271149        -0.005360        -0.000822
 C         4.569422         0.502754        -0.265581
 C         4.313321         1.999013         0.149405
 O         2.972780         2.177188         0.539327
 C         2.507502         0.906746         0.941643
 O         2.294658         0.167750        -1.244967
 H        -0.351957        -0.308415         1.104623
 H        -0.409625         1.074372        -0.097615
 H        -0.438122        -0.710729        -0.622532
 H         2.400992        -1.425188         1.487004
 H         2.332313        -2.148347        -0.242744
 H         5.275540         0.042967         0.377516
 H         4.996952         0.412527        -1.234587
 H         5.034160         2.155554         1.028333
 H         4.506961         2.688684        -0.730938
 H         2.535353         0.565070         2.003141
