19
Iteration:  1299charge 0 multiplicity 1
 C         0.008462         0.068192        -0.039765
 C         1.523180         0.069491         0.021397
 C         2.215782        -1.335153         0.301897
 C         3.311912        -0.129204         0.085271
 C         4.664329         0.496581        -0.277600
 C         4.166045         2.012839        -0.169826
 O         3.020286         2.120322         0.825174
 C         2.579897         0.775896         1.011222
 O         2.299983         0.388600        -1.064763
 H        -0.388582        -0.491130         0.818632
 H        -0.610599         0.965287        -0.104669
 H        -0.150373        -0.520531        -0.976797
 H         2.047256        -1.795308         1.251412
 H         2.051442        -1.974064        -0.589287
 H         5.435310         0.267375         0.433892
 H         4.867862         0.298755        -1.277258
 H         5.015605         2.721087         0.153693
 H         3.839821         2.376506        -1.137393
 H         2.661813         0.563421         2.114160
