19
Iteration:  4495
 C        -0.064803         0.188475         0.152416
 C         1.498826        -0.064849         0.058896
 C         2.368848        -1.333572         0.385381
 C         3.323853        -0.097343        -0.096583
 C         4.682121         0.540628        -0.096447
 C         4.258717         2.094311         0.094559
 O         2.913478         2.166398         0.507518
 C         2.600441         0.757450         0.874204
 O         2.191694         0.164970        -1.251823
 H        -0.500381        -0.221985         1.034527
 H        -0.180484         1.299641         0.175221
 H        -0.527837        -0.199883        -0.725070
 H         2.509039        -1.565329         1.457157
 H         2.189801        -2.226039        -0.282865
 H         5.059539         0.108684         0.823773
 H         5.377633         0.475244        -0.948619
 H         4.879614         2.764105         0.792745
 H         4.207608         2.725588        -0.836967
 H         2.805228         0.562859         1.966966
