19
Iteration:  3300
 C        -0.007151         0.176343         0.015674
 C         1.505547        -0.048072         0.162304
 C         2.391121        -1.256410         0.358190
 C         3.311003        -0.109176        -0.109962
 C         4.635483         0.520128        -0.188807
 C         4.141653         2.062137        -0.035542
 O         3.020880         2.053541         0.737087
 C         2.553066         0.798729         0.909011
 O         2.182826         0.227542        -1.161734
 H        -0.734923         0.142840         0.806566
 H         0.076275         1.293396        -0.200986
 H        -0.435892        -0.268535        -0.908922
 H         2.581350        -1.608048         1.354585
 H         2.321257        -2.185941        -0.258991
 H         5.389054         0.153398         0.619630
 H         5.217550         0.409694        -1.201903
 H         4.923532         2.827137         0.402190
 H         4.056533         2.527820        -1.099254
 H         2.496820         0.531288         1.986657
