19
Iteration:  1039charge 0 multiplicity 1
 C         0.026275         0.256529         0.022557
 C         1.489126         0.055003         0.071282
 C         2.181543        -1.282407         0.334682
 C         3.313668        -0.151626        -0.032465
 C         4.743450         0.630599        -0.247857
 C         4.145476         2.019308        -0.093333
 O         2.922687         1.997146         0.723020
 C         2.624351         0.688518         1.028189
 O         2.311159         0.229601        -1.149652
 H        -0.196847        -0.032336         1.038922
 H        -0.286793         1.282165        -0.121867
 H        -0.476032        -0.396781        -0.736939
 H         2.242875        -1.718872         1.299259
 H         2.055920        -1.895731        -0.585348
 H         5.350769         0.306345         0.722352
 H         5.283043         0.546772        -1.219542
 H         4.974208         2.582880         0.366803
 H         3.907753         2.586876        -1.038562
 H         2.639647         0.563324         2.137426
