19
Iteration:  3188
 C        -0.084012        -0.050793         0.046283
 C         1.439993         0.034674        -0.008390
 C         2.332355        -1.233417         0.338272
 C         3.275727        -0.078376        -0.024568
 C         4.682709         0.471739        -0.240605
 C         4.297640         2.032179         0.042512
 O         3.119968         2.147676         0.725944
 C         2.497325         0.884447         0.960597
 O         2.161961         0.293813        -1.198633
 H        -0.197895        -0.227682         1.134859
 H        -0.544402         0.897337        -0.184631
 H        -0.563549        -0.875694        -0.488765
 H         2.528638        -1.688603         1.265199
 H         2.290400        -1.983070        -0.410605
 H         5.290397         0.069977         0.606336
 H         5.033623         0.289024        -1.265470
 H         5.144681         2.475912         0.531204
 H         4.193957         2.677287        -0.902399
 H         2.534381         0.634093         1.937918
