19
Iteration:  3969
 C         0.053024         0.283152        -0.048178
 C         1.516430        -0.021203         0.065069
 C         2.342484        -1.337078         0.413409
 C         3.333105        -0.119786        -0.037457
 C         4.608929         0.615825        -0.347134
 C         4.196739         2.061037         0.012008
 O         2.866066         2.077632         0.751361
 C         2.574006         0.735826         0.964371
 O         2.314277         0.148533        -1.161193
 H        -0.464127        -0.061062         0.902071
 H        -0.054947         1.390553        -0.064034
 H        -0.439998        -0.191742        -0.951259
 H         2.474199        -1.685480         1.478800
 H         2.052236        -2.196214        -0.143792
 H         5.365883         0.235522         0.379567
 H         4.898535         0.562946        -1.345053
 H         4.989902         2.555614         0.720075
 H         3.829705         2.696302        -0.743381
 H         2.490964         0.505418         2.089318
