19
Iteration:  2779
 C         0.008145         0.229599         0.053678
 C         1.426117        -0.045377         0.107591
 C         2.349744        -1.306178         0.277062
 C         3.330787        -0.181845        -0.026249
 C         4.694383         0.600340        -0.257816
 C         4.196407         2.074477        -0.016591
 O         2.890313         2.110630         0.719859
 C         2.562737         0.723206         0.963799
 O         2.330309         0.224220        -1.155718
 H        -0.429739         0.030978         0.999213
 H        -0.219339         1.305855        -0.037206
 H        -0.535750        -0.367621        -0.773281
 H         2.432697        -1.637663         1.309502
 H         2.021806        -2.107368        -0.284770
 H         5.669032         0.117045         0.011455
 H         4.699122         0.486012        -1.397993
 H         4.834955         2.573614         0.822915
 H         4.017387         2.614029        -0.889814
 H         2.684835         0.544036         2.029463
