19
Iteration:  3382
 C        -0.092545         0.093403        -0.050831
 C         1.460181        -0.022624         0.158104
 C         2.351717        -1.280589         0.336546
 C         3.311972        -0.052852        -0.082756
 C         4.572189         0.513929        -0.173544
 C         4.196410         2.049926        -0.123131
 O         3.119984         2.086072         0.731036
 C         2.523131         0.779928         0.944905
 O         2.291143         0.296267        -1.101829
 H        -0.640308        -0.203617         0.872715
 H        -0.425941         1.119348        -0.269368
 H        -0.488724        -0.562892        -0.844904
 H         2.459043        -1.497987         1.452288
 H         2.300058        -2.199296        -0.340210
 H         5.094595         0.324941         0.727842
 H         5.143670         0.397111        -1.049543
 H         5.090719         2.491633         0.393596
 H         3.977225         2.509366        -1.075359
 H         2.563321         0.582581         1.988044
