19
Iteration:   670charge 0 multiplicity 1
 C        -0.069728         0.077382        -0.053961
 C         1.433832         0.052768         0.068809
 C         2.328259        -1.204178         0.320756
 C         3.299573        -0.125972        -0.027737
 C         4.587396         0.512931        -0.287146
 C         4.275014         2.011457         0.035530
 O         2.985513         2.053983         0.790808
 C         2.610944         0.754840         0.980610
 O         2.302531         0.301157        -1.184694
 H        -0.530128        -0.296653         0.890294
 H        -0.231591         1.181669         0.134577
 H        -0.495923        -0.300806        -1.019533
 H         2.333193        -1.592672         1.352838
 H         2.188494        -2.034628        -0.418833
 H         5.427878         0.243730         0.404116
 H         4.966586         0.565128        -1.370377
 H         5.059707         2.461950         0.644414
 H         4.229448         2.607256        -0.853332
 H         2.384858         0.580542         2.128998
