19
Iteration:   333charge 0 multiplicity 1
 C        -0.055900         0.098063         0.052781
 C         1.484375        -0.001923         0.132080
 C         2.269209        -1.317271         0.217541
 C         3.245160        -0.094958        -0.139621
 C         4.711382         0.520835        -0.063768
 C         4.292555         2.034882        -0.106000
 O         2.967071         2.097805         0.742779
 C         2.585784         0.702741         0.934987
 O         2.269642         0.415990        -1.159547
 H        -0.393133        -0.605129         0.808071
 H        -0.306612         1.142530         0.325521
 H        -0.451375        -0.381968        -0.820470
 H         2.399284        -1.939844         1.143069
 H         2.172021        -1.975675        -0.606957
 H         4.892338         0.149851         0.941120
 H         5.517103         0.266108        -0.745398
 H         4.983150         2.806185         0.301033
 H         3.964263         2.491599        -1.016027
 H         2.568639         0.574296         2.031997
