19
Iteration:   524
 C         0.045016         0.294436        -0.046225
 C         1.531035        -0.047434         0.053968
 C         2.446053        -1.365473         0.223041
 C         3.287792        -0.116402         0.033494
 C         4.645972         0.539026        -0.302509
 C         4.264049         1.984127         0.046019
 O         2.866477         2.084150         0.734394
 C         2.534502         0.745966         1.068016
 O         2.183754         0.363049        -1.124779
 H        -0.407530        -0.436090         0.639803
 H        -0.338615         1.315997         0.041652
 H        -0.366606        -0.067895        -1.004558
 H         2.703068        -1.554990         1.276172
 H         2.276104        -2.302713        -0.289069
 H         5.424224         0.019423         0.267569
 H         4.592100         0.237106        -1.307825
 H         5.027024         2.451572         0.576677
 H         4.080652         2.427466        -0.937472
 H         2.671707         0.400366         2.110582
