19
Iteration:   601
 C        -0.078795         0.159693         0.036424
 C         1.480077         0.096183         0.055760
 C         2.478145        -1.399580         0.201527
 C         3.249261        -0.160773        -0.123143
 C         4.630027         0.549947        -0.151942
 C         4.252074         1.989883        -0.134959
 O         2.997011         2.076702         0.856374
 C         2.443038         0.751024         1.023529
 O         2.319938         0.403398        -1.117691
 H        -0.549406         0.323293         1.022247
 H        -0.385014         1.123786        -0.470417
 H        -0.566252        -0.631417        -0.533939
 H         2.851123        -1.835040         1.205564
 H         2.121348        -2.036833        -0.608978
 H         5.252580         0.071340         0.718445
 H         5.128446         0.299041        -1.051733
 H         5.028729         2.663667         0.164196
 H         3.919938         2.256856        -1.152841
 H         2.208791         0.303693         2.041411
