19
Iteration:  1672charge 0 multiplicity 1
 C        -0.014769         0.001132         0.091633
 C         1.463046         0.093632         0.127826
 C         2.295380        -1.181893         0.290038
 C         3.269628        -0.122775        -0.096268
 C         4.638355         0.471385        -0.196385
 C         4.250465         2.047537        -0.020834
 O         3.054130         2.049811         0.748597
 C         2.565883         0.776085         0.930575
 O         2.271631         0.344123        -1.221729
 H        -0.192757        -0.372996         1.089437
 H        -0.671571         0.837136         0.021690
 H        -0.349573        -0.702480        -0.663800
 H         2.359579        -1.698039         1.246432
 H         1.774209        -1.669907        -0.501289
 H         5.455232         0.250136         0.510108
 H         5.060121         0.394830        -1.222097
 H         4.892536         2.680313         0.555012
 H         3.807114         2.430856        -0.962652
 H         2.566791         0.579878         2.009065
