19
Iteration:  1631charge 0 multiplicity 1
 C        -0.113436         0.033006         0.010437
 C         1.427010        -0.052721         0.124643
 C         2.468123        -1.268505         0.257666
 C         3.251203        -0.027757        -0.068862
 C         4.635470         0.523421        -0.194746
 C         4.244523         1.982552        -0.092212
 O         3.096476         2.070088         0.702745
 C         2.509274         0.791140         0.982763
 O         2.212948         0.408750        -1.060579
 H        -0.609285        -0.324010         0.904628
 H        -0.202639         1.106981         0.092885
 H        -0.753784        -0.278123        -0.861366
 H         2.709691        -1.727704         1.147645
 H         2.269498        -2.040221        -0.561705
 H         5.186742         0.032040         0.534015
 H         4.883951         0.303188        -1.143288
 H         5.120787         2.446331         0.504516
 H         4.314346         2.555107        -1.089624
 H         2.587702         0.547294         1.997810
