19
Iteration:  2460charge 0 multiplicity 1
 C        -0.024725         0.131834         0.099858
 C         1.485610         0.012570         0.187932
 C         2.398350        -1.290994         0.334289
 C         3.250446        -0.020105        -0.175482
 C         4.656259         0.493177        -0.279289
 C         4.330426         2.043397         0.080957
 O         2.928937         2.092608         0.584060
 C         2.562709         0.751820         0.978284
 O         2.146559         0.283227        -1.152345
 H        -0.682349         0.175837         1.017410
 H        -0.151422         0.969768        -0.614187
 H        -0.333716        -0.746995        -0.413775
 H         2.886013        -1.661654         1.258416
 H         2.210858        -2.188414        -0.393062
 H         5.365796         0.122311         0.487342
 H         5.019365         0.432909        -1.319627
 H         4.870707         2.353371         0.935281
 H         4.544275         2.697198        -0.683147
 H         2.667709         0.426586         2.126465
