19
Iteration:  3337
 C        -0.036909         0.001403         0.009848
 C         1.461373         0.052607         0.108647
 C         2.326314        -1.273258         0.218247
 C         3.273079        -0.125803         0.077304
 C         4.605604         0.446905        -0.207378
 C         4.181113         1.995247        -0.211665
 O         3.086808         2.141232         0.735103
 C         2.492650         0.820118         1.017736
 O         2.354264         0.391701        -1.057840
 H        -0.567039        -0.186409         1.017413
 H        -0.309900         0.921857        -0.466371
 H        -0.309652        -0.778794        -0.709644
 H         2.396891        -1.805541         1.247900
 H         2.208389        -1.780860        -0.724581
 H         5.313257         0.323986         0.614667
 H         5.000355         0.142437        -1.129597
 H         4.935684         2.710028         0.302812
 H         3.779358         2.229794        -1.163956
 H         2.387312         0.747331         2.062580
