19
Iteration:  4534charge 0 multiplicity 1
 C        -0.044637        -0.042700         0.054609
 C         1.466952        -0.018327         0.035100
 C         2.345707        -1.243144         0.387689
 C         3.219719        -0.038601         0.082118
 C         4.548093         0.496445        -0.319674
 C         4.372551         2.049334         0.169114
 O         2.970862         2.176212         0.537650
 C         2.539208         0.953990         0.924996
 O         2.295539         0.190573        -1.187847
 H        -0.437669        -0.191110         1.121344
 H        -0.420363         0.950475        -0.284915
 H        -0.634871        -0.687754        -0.667895
 H         2.488636        -1.705518         1.371713
 H         2.367430        -2.104780        -0.327642
 H         5.374001         0.020729         0.289185
 H         4.821230         0.375508        -1.369814
 H         5.053152         2.236208         0.952444
 H         4.674629         2.584148        -0.686227
 H         2.600799         0.826044         2.023343
