19
Iteration:  2136
 C         0.025578         0.049576         0.071757
 C         1.461663        -0.005887         0.099451
 C         2.290968        -1.270560         0.339755
 C         3.232028        -0.022932         0.004875
 C         4.577946         0.621864        -0.376192
 C         4.283792         2.010538         0.087388
 O         3.011118         2.049885         0.596379
 C         2.552627         0.781544         0.941743
 O         2.291777         0.306464        -1.109479
 H        -0.063501        -0.280775         1.134826
 H        -0.331550         1.098785        -0.092510
 H        -0.425230        -0.710030        -0.650022
 H         2.119207        -1.735236         1.389621
 H         2.130494        -2.017399        -0.520551
 H         5.362930         0.201835         0.272365
 H         4.910748         0.235599        -1.303772
 H         5.057830         2.368647         0.793353
 H         4.339225         2.675771        -0.741731
 H         2.481475         0.547278         1.931995
