19
Iteration:  4835charge 0 multiplicity 1
 C        -0.018702         0.177115         0.158849
 C         1.429626        -0.021886         0.083916
 C         2.385328        -1.269195         0.366780
 C         3.314035        -0.079068         0.012908
 C         4.631771         0.557382        -0.170981
 C         4.290511         2.083613         0.042067
 O         2.925093         2.115865         0.591349
 C         2.473029         0.862085         0.833440
 O         2.334792         0.097181        -1.219671
 H        -0.673227        -0.160734         1.034297
 H        -0.270851         1.252629        -0.043752
 H        -0.511236        -0.342393        -0.775432
 H         2.204917        -1.719910         1.380708
 H         2.363357        -2.042874        -0.454385
 H         5.361218         0.240418         0.523037
 H         5.115181         0.319467        -1.108456
 H         5.077487         2.446935         0.685728
 H         4.298315         2.412266        -0.990806
 H         2.334038         0.514776         1.906424
