19
Iteration:  1641charge 0 multiplicity 1
 C        -0.121334         0.040339         0.056964
 C         1.416718        -0.132606         0.104030
 C         2.443354        -1.337743         0.268204
 C         3.213372        -0.048639        -0.080927
 C         4.586333         0.446666        -0.205266
 C         4.374185         2.067092        -0.086471
 O         3.089016         2.128111         0.746059
 C         2.507970         0.821717         0.968760
 O         2.214675         0.456731        -1.119659
 H        -0.441609        -0.494922         0.921281
 H        -0.335177         1.092864         0.105689
 H        -0.526743        -0.490294        -0.819344
 H         2.541921        -1.807544         1.196048
 H         2.237152        -2.057031        -0.552037
 H         5.199176         0.273078         0.612119
 H         5.113543         0.128189        -1.045371
 H         5.166522         2.654566         0.461721
 H         4.170607         2.524118        -1.160405
 H         2.491333         0.596491         1.989283
