19
Iteration:  4412
 C        -0.006918         0.066550        -0.188433
 C         1.401298        -0.003007         0.125996
 C         2.289566        -1.276217         0.373415
 C         3.254957        -0.125750         0.007626
 C         4.638647         0.605020        -0.244438
 C         4.099692         2.064730        -0.186739
 O         3.204112         2.172571         0.959486
 C         2.614594         0.879486         0.929386
 O         2.241702         0.132698        -1.081518
 H        -0.875420         0.015235         0.560288
 H        -0.405817         0.963717        -0.708657
 H        -0.365544        -0.758090        -0.913225
 H         2.478326        -1.661310         1.423681
 H         2.279433        -2.024398        -0.361754
 H         5.324791         0.288076         0.598436
 H         5.219007         0.311627        -1.235111
 H         4.961291         2.659004        -0.060151
 H         3.485354         2.275952        -1.069070
 H         2.793655         0.569355         1.965598
