19
Iteration:   121
 C         0.005759         0.031003        -0.132597
 C         1.481083         0.012081         0.084995
 C         2.273719        -1.241961         0.382157
 C         3.242251        -0.064129        -0.009619
 C         4.562241         0.526665        -0.433554
 C         4.180893         2.026129        -0.055596
 O         3.139806         2.074035         0.890735
 C         2.543444         0.823876         1.024906
 O         2.327749         0.287768        -1.094799
 H        -0.596988        -0.477705         0.603925
 H        -0.275511         1.048849        -0.080280
 H        -0.315325        -0.386763        -1.072064
 H         2.332556        -1.526411         1.421423
 H         2.106849        -2.083366        -0.231312
 H         5.271789         0.169510         0.235198
 H         4.675329         0.257346        -1.448017
 H         5.033239         2.558591         0.427065
 H         4.028765         2.636378        -0.982683
 H         2.318436         0.702970         2.106036
