19
Iteration:  1820charge 0 multiplicity 1
 C        -0.048563         0.032314         0.019593
 C         1.462613         0.049481         0.101662
 C         2.384163        -1.270821         0.261158
 C         3.255878        -0.061848        -0.140812
 C         4.699798         0.481844        -0.202326
 C         4.221588         2.007356        -0.091999
 O         3.054883         2.006824         0.699998
 C         2.571022         0.734948         1.013355
 O         2.155720         0.445514        -1.031624
 H        -0.435394        -0.519812         0.929334
 H        -0.379771         1.124138         0.071954
 H        -0.354998        -0.424228        -0.903171
 H         2.405561        -1.666912         1.265983
 H         2.109599        -1.994347        -0.462657
 H         5.085056         0.207049         0.777713
 H         5.381045         0.410438        -1.103057
 H         4.981847         2.827969         0.247177
 H         4.173628         2.459510        -1.104522
 H         2.627517         0.711394         2.094512
