19
Iteration:   626
 C        -0.067172         0.058631         0.022007
 C         1.473495        -0.033974         0.041222
 C         2.416186        -1.243036         0.096073
 C         3.284703        -0.081930         0.054306
 C         4.643579         0.467779        -0.111179
 C         4.174313         1.925337        -0.077041
 O         3.082049         2.097638         0.711010
 C         2.543639         0.811882         1.020782
 O         2.195169         0.454421        -1.081555
 H        -0.571632         0.114991         1.004397
 H        -0.439169         1.009566        -0.406199
 H        -0.463503        -0.760205        -0.602171
 H         2.451608        -1.736692         1.064413
 H         2.310697        -1.771443        -0.851079
 H         5.254215         0.259445         0.833111
 H         5.279724         0.134947        -0.959017
 H         5.028294         2.448540         0.347750
 H         4.063494         2.319641        -1.060770
 H         2.549494         0.350763         2.041300
