19
Iteration:  3203charge 0 multiplicity 1
 C        -0.090156        -0.029809         0.053180
 C         1.398783         0.006512         0.123934
 C         2.367031        -1.264370         0.311977
 C         3.244860        -0.063561        -0.160287
 C         4.666147         0.572446        -0.196878
 C         4.452484         2.000359        -0.003798
 O         3.037011         2.133949         0.696240
 C         2.528727         0.817453         0.903812
 O         2.165696         0.302109        -1.111707
 H        -0.623458        -0.176853         0.969410
 H        -0.574838         0.942745        -0.264258
 H        -0.315138        -0.837874        -0.690104
 H         2.410204        -1.512456         1.397280
 H         2.067743        -2.116632        -0.391094
 H         5.282192         0.061865         0.507684
 H         5.376106         0.445386        -1.049062
 H         5.072036         2.594448         0.762899
 H         4.293965         2.513965        -0.989588
 H         2.475869         0.695478         2.041187
