19
Iteration:   448charge 0 multiplicity 1
 C        -0.042938         0.050742         0.030634
 C         1.448298         0.023165        -0.029728
 C         2.402533        -1.241400         0.199317
 C         3.163046        -0.025172        -0.052743
 C         4.635272         0.482465        -0.146488
 C         4.296774         2.013539        -0.059467
 O         3.055012         2.031185         0.836768
 C         2.477418         0.771314         0.996469
 O         2.264610         0.411058        -1.182330
 H        -0.354714        -0.011735         1.124776
 H        -0.498283         1.014131        -0.270604
 H        -0.509742        -0.895648        -0.355327
 H         2.408128        -1.589732         1.243785
 H         2.500527        -2.119420        -0.471514
 H         5.271971         0.037834         0.729890
 H         5.194813         0.239854        -1.056257
 H         5.136224         2.521409         0.375525
 H         4.206834         2.442350        -1.084922
 H         2.487049         0.448370         2.068859
