19
Iteration:  2549
 C        -0.065236         0.146909         0.079201
 C         1.427816        -0.036577         0.087985
 C         2.407647        -1.274716         0.363427
 C         3.244693        -0.075791        -0.129646
 C         4.653878         0.546532        -0.207664
 C         4.265846         2.051765        -0.119591
 O         3.006785         2.100767         0.770515
 C         2.589814         0.767105         0.891653
 O         2.226434         0.249298        -1.101223
 H        -0.719917        -0.353362         0.826607
 H        -0.280161         1.202243         0.078713
 H        -0.394873        -0.201092        -0.942576
 H         2.671566        -1.797523         1.316275
 H         2.423321        -1.907421        -0.598885
 H         4.957865         0.171842         0.770960
 H         5.247620         0.285628        -1.078511
 H         4.910898         2.672099         0.407968
 H         4.077610         2.436568        -1.062586
 H         2.603800         0.438967         2.024309
