19
Iteration:  3713charge 0 multiplicity 1
 C        -0.101848        -0.092472         0.059448
 C         1.405607         0.076963         0.009572
 C         2.333366        -1.207773         0.357745
 C         3.193442        -0.006309        -0.066328
 C         4.602680         0.450968        -0.289728
 C         4.365222         1.998351         0.089226
 O         3.087869         2.132211         0.673988
 C         2.516272         0.889772         0.965015
 O         2.300610         0.279026        -1.166969
 H        -0.229706        -0.361792         1.173058
 H        -0.569804         0.819174        -0.194563
 H        -0.414108        -0.896862        -0.560157
 H         2.538237        -1.552974         1.356700
 H         2.149703        -2.000563        -0.286562
 H         5.249341        -0.006941         0.429159
 H         4.945471         0.412216        -1.355707
 H         5.181905         2.443293         0.714882
 H         4.202300         2.575900        -0.917280
 H         2.478902         0.732892         2.056917
