19
Iteration:  4850charge 0 multiplicity 1
 C        -0.104714         0.178621        -0.027786
 C         1.458567        -0.037486         0.030867
 C         2.487302        -1.257647         0.484136
 C         3.267000        -0.081015        -0.029784
 C         4.617925         0.476507        -0.237322
 C         4.265689         1.999787        -0.002718
 O         2.949594         2.141371         0.603913
 C         2.513881         0.813120         0.942702
 O         2.277648         0.205547        -1.151147
 H        -0.390688        -0.226712         0.927567
 H        -0.274889         1.235412         0.017267
 H        -0.586759        -0.328994        -0.819576
 H         2.758992        -1.409648         1.513720
 H         2.452479        -2.151802        -0.152312
 H         5.311646         0.075042         0.581463
 H         4.931754         0.293387        -1.277464
 H         4.867638         2.514149         0.816799
 H         4.147222         2.717359        -0.774499
 H         2.599310         0.676980         2.025878
