19
Iteration:  2439charge 0 multiplicity 1
 C        -0.034798         0.161636         0.172230
 C         1.460978        -0.039882         0.089101
 C         2.390546        -1.258337         0.323447
 C         3.255935        -0.129272        -0.156058
 C         4.617573         0.567538        -0.291562
 C         4.270420         2.046930         0.116745
 O         2.936688         2.143541         0.658146
 C         2.548568         0.778518         0.839511
 O         2.296041         0.213796        -1.151953
 H        -0.171742         0.177553         1.292082
 H        -0.229310         1.119732        -0.312678
 H        -0.692797        -0.592578        -0.160980
 H         2.332491        -1.691110         1.360246
 H         2.161419        -2.102085        -0.493812
 H         5.318743         0.075386         0.431586
 H         5.008058         0.333635        -1.281089
 H         4.883104         2.503722         0.893996
 H         4.376851         2.675562        -0.820231
 H         2.700246         0.309993         1.896216
