19
Iteration:  1436charge 0 multiplicity 1
 C        -0.025232         0.074402         0.035407
 C         1.431926        -0.014673         0.201965
 C         2.269626        -1.303510         0.343850
 C         3.287691        -0.073087        -0.162552
 C         4.645003         0.526102        -0.314265
 C         4.231696         2.055685         0.110779
 O         3.016746         2.127364         0.672415
 C         2.637347         0.815885         0.935783
 O         2.218910         0.286404        -1.164478
 H        -0.625856        -0.462435         0.757452
 H        -0.413188         1.095080         0.027326
 H        -0.107154        -0.357456        -0.991186
 H         2.348823        -1.689712         1.399354
 H         2.211737        -2.110073        -0.466961
 H         5.231573         0.106003         0.560757
 H         5.243171         0.400502        -1.199272
 H         5.054473         2.345441         0.705548
 H         4.264099         2.743013        -0.693795
 H         2.804289         0.395746         1.992653
