19
Iteration:  2607
 C        -0.003370         0.236789         0.045508
 C         1.504149         0.059123         0.059018
 C         2.299355        -1.334450         0.270827
 C         3.347456        -0.249016        -0.018099
 C         4.615715         0.591568        -0.247231
 C         4.053745         2.033289        -0.153678
 O         2.943334         2.056103         0.759228
 C         2.557815         0.744716         1.043468
 O         2.435974         0.289940        -1.076612
 H        -0.414699         0.019309         0.975876
 H        -0.242547         1.251729        -0.283539
 H        -0.462048        -0.459984        -0.671552
 H         2.600417        -1.747117         1.278633
 H         2.182338        -2.118212        -0.407587
 H         5.457046         0.252759         0.299178
 H         4.963604         0.517118        -1.294410
 H         4.680686         2.735341         0.217185
 H         3.763635         2.377592        -1.182910
 H         2.432943         0.698127         2.189422
