19
Iteration:  2723charge 0 multiplicity 1
 C        -0.061276         0.111815         0.136068
 C         1.413583        -0.004244         0.105283
 C         2.473706        -1.239643         0.310004
 C         3.266983        -0.049852        -0.057337
 C         4.690625         0.539353        -0.232809
 C         4.315263         1.983130         0.110101
 O         2.904193         2.075767         0.576909
 C         2.485593         0.826010         0.929370
 O         2.249271         0.276705        -1.157714
 H        -0.526468        -0.489200         0.927327
 H        -0.299166         1.156185         0.024295
 H        -0.416425        -0.394721        -0.814710
 H         2.441651        -1.834272         1.198201
 H         2.364897        -1.875568        -0.521860
 H         5.308672        -0.197094         0.358440
 H         5.102417         0.436168        -1.273145
 H         5.102890         2.632185         0.721363
 H         4.400466         2.462601        -0.843404
 H         2.569584         0.520809         1.939986
