19
Iteration:  3681
 C        -0.026097        -0.002342        -0.084653
 C         1.427527         0.025652         0.180119
 C         2.368254        -1.346596         0.300799
 C         3.228422        -0.070525         0.011844
 C         4.680251         0.451639        -0.271008
 C         4.381170         2.022657        -0.062551
 O         2.997412         2.151494         0.636399
 C         2.570645         0.814882         1.050376
 O         2.142768         0.402829        -1.028910
 H        -0.760297         0.100198         0.783556
 H        -0.182011         0.885747        -0.657866
 H        -0.286468        -0.862533        -0.671782
 H         2.656716        -1.755147         1.289027
 H         2.077263        -2.038110        -0.446653
 H         5.356105         0.042921         0.396198
 H         5.015770         0.274101        -1.281242
 H         5.089676         2.741827         0.418625
 H         4.119445         2.444832        -1.109094
 H         2.628690         0.610880         2.101190
