19
Iteration:     3
 C         0.008920         0.177946         0.020663
 C         1.467325         0.001152         0.090365
 C         2.323636        -1.304896         0.284472
 C         3.279250        -0.117268        -0.052857
 C         4.620895         0.530770        -0.240244
 C         4.199655         2.015301        -0.080214
 O         3.008287         2.070886         0.732583
 C         2.529450         0.767431         0.996125
 O         2.302664         0.323187        -1.104001
 H        -0.459108        -0.128667         0.985813
 H        -0.299191         1.203329        -0.235665
 H        -0.416405        -0.510066        -0.768872
 H         2.449171        -1.759699         1.299593
 H         2.212963        -2.069444        -0.472313
 H         5.306796         0.175955         0.631565
 H         5.073280         0.372754        -1.182151
 H         4.899772         2.651817         0.463577
 H         3.982193         2.503080        -0.992788
 H         2.650317         0.463216         2.028823
