19
Iteration:  3632charge 0 multiplicity 1
 C         0.001867         0.334219         0.044030
 C         1.472240        -0.060207        -0.054216
 C         2.302488        -1.342744         0.402227
 C         3.361751        -0.108595         0.008128
 C         4.705314         0.595887        -0.222734
 C         4.043835         2.032124        -0.141138
 O         3.037119         2.014899         0.774941
 C         2.512520         0.743968         0.899205
 O         2.354512         0.205521        -1.086161
 H        -0.283892         0.040157         1.015730
 H        -0.251156         1.440737        -0.037165
 H        -0.759081        -0.286542        -0.519542
 H         2.183021        -1.589677         1.423401
 H         2.226588        -2.204135        -0.346072
 H         5.611478         0.335962         0.576473
 H         5.137668         0.620420        -1.304459
 H         4.670987         2.908464         0.017078
 H         3.597037         2.257400        -1.084450
 H         2.333411         0.655786         2.047774
