19
Iteration:  4200
 C        -0.109367         0.034781        -0.011455
 C         1.413083         0.050781         0.091259
 C         2.269029        -1.291017         0.304446
 C         3.275215        -0.109525        -0.063363
 C         4.595433         0.568690        -0.173525
 C         4.302681         2.095983        -0.117907
 O         3.094341         2.099349         0.719445
 C         2.586764         0.759176         1.008257
 O         2.270865         0.292577        -1.104891
 H        -0.540664        -0.009490         1.006277
 H        -0.481900         0.888370        -0.604711
 H        -0.290600        -0.890645        -0.548404
 H         2.451485        -1.573222         1.340250
 H         2.389013        -2.105168        -0.481425
 H         5.366926         0.334329         0.734503
 H         5.275069         0.371738        -1.068347
 H         5.060980         2.639604         0.400857
 H         3.863497         2.407043        -1.070341
 H         2.592220         0.415833         2.040388
