19
Iteration:  4998
 C         0.058738         0.229991         0.016068
 C         1.559328         0.032931         0.039437
 C         2.448574        -1.321331         0.437465
 C         3.338082        -0.180646         0.034849
 C         4.611320         0.421939        -0.267148
 C         4.120887         1.986036        -0.005665
 O         2.762224         2.094082         0.604253
 C         2.523211         0.770309         0.941510
 O         2.375688         0.362168        -1.090926
 H        -0.544269        -0.030824         0.904792
 H         0.009053         1.276003        -0.205211
 H        -0.389384        -0.301076        -0.861465
 H         2.496040        -1.523871         1.505923
 H         2.300171        -2.028244        -0.436400
 H         5.523652         0.163468         0.289087
 H         4.810367         0.207296        -1.312057
 H         4.875045         2.524734         0.584936
 H         3.801293         2.400694        -1.076703
 H         2.511810         0.790606         2.070634
