19
Iteration:  1576charge 0 multiplicity 1
 C        -0.039623         0.325394         0.021055
 C         1.479471        -0.009775         0.069030
 C         2.377318        -1.357349         0.338201
 C         3.345750        -0.108645         0.012526
 C         4.658690         0.638849        -0.352699
 C         4.170166         2.085975        -0.098582
 O         2.958782         1.989020         0.803843
 C         2.544841         0.653814         1.014436
 O         2.317864         0.248069        -1.135987
 H        -0.477138         0.118649         0.989405
 H        -0.371221         1.332771        -0.187657
 H        -0.610099        -0.327792        -0.684533
 H         2.270022        -1.763303         1.314955
 H         2.324906        -2.078736        -0.481670
 H         5.407887         0.158113         0.206680
 H         4.901573         0.412209        -1.337796
 H         4.923155         2.672601         0.473339
 H         3.784218         2.562293        -1.036893
 H         2.510243         0.426677         2.049263
