19
Iteration:  4840charge 0 multiplicity 1
 C        -0.084563         0.174512         0.112028
 C         1.477807        -0.017371         0.069030
 C         2.425620        -1.254129         0.394078
 C         3.283921        -0.068215         0.040752
 C         4.621251         0.523680        -0.207299
 C         4.243057         2.067319         0.038594
 O         2.952788         2.100454         0.599721
 C         2.452699         0.842523         0.850761
 O         2.321176         0.127211        -1.218172
 H        -0.634549        -0.147994         0.957908
 H        -0.247453         1.226079        -0.050579
 H        -0.487752        -0.253085        -0.742418
 H         2.450090        -1.603155         1.426317
 H         2.469815        -2.079264        -0.302876
 H         5.377488         0.142225         0.585913
 H         5.099865         0.279468        -1.184057
 H         5.055787         2.487156         0.709157
 H         4.418984         2.561389        -0.959750
 H         2.595882         0.572938         1.907062
