19
Iteration:   979
 C        -0.066318         0.055835        -0.073515
 C         1.403232        -0.016029         0.126822
 C         2.374393        -1.261301         0.310764
 C         3.294481        -0.086104        -0.080204
 C         4.630866         0.441288        -0.246048
 C         4.337658         2.009356         0.006043
 O         3.039259         2.148269         0.733076
 C         2.589889         0.827208         1.001874
 O         2.144299         0.369236        -1.095532
 H        -0.799552         0.142177         0.790501
 H        -0.246532         0.886837        -0.802529
 H        -0.262464        -0.906595        -0.603680
 H         2.465639        -1.684905         1.466649
 H         2.395359        -2.139089        -0.361591
 H         5.255778        -0.197046         0.447857
 H         5.087099         0.447502        -1.279009
 H         5.210716         2.491077         0.496553
 H         4.104605         2.557200        -0.915071
 H         2.601789         0.539612         2.048825
