19
Iteration:  2263
 C        -0.069083         0.228277         0.087841
 C         1.450998        -0.020634         0.185733
 C         2.457595        -1.343640         0.230223
 C         3.362181        -0.119361        -0.019985
 C         4.693898         0.539439        -0.271399
 C         4.286547         2.004537         0.005454
 O         2.842957         2.057525         0.569402
 C         2.548736         0.749164         0.969573
 O         2.183958         0.323222        -1.095031
 H        -0.325300         0.396279         1.150135
 H        -0.310099         1.219568        -0.347958
 H        -0.595469        -0.498785        -0.422807
 H         2.831767        -1.763658         1.193248
 H         2.235873        -2.015340        -0.525958
 H         5.293957         0.202303         0.586162
 H         5.145422         0.318997        -1.250112
 H         5.039764         2.345185         0.780432
 H         4.354987         2.623717        -0.996218
 H         2.641922         0.674638         2.023136
