19
Iteration:  1230charge 0 multiplicity 1
 C        -0.034480         0.219326         0.164156
 C         1.434893        -0.018749         0.037666
 C         2.358787        -1.283980         0.269733
 C         3.319107        -0.131896        -0.011396
 C         4.618505         0.569894        -0.191086
 C         4.218933         1.991866        -0.032293
 O         2.950902         2.120253         0.712779
 C         2.483993         0.772336         0.913115
 O         2.398982         0.202620        -1.204312
 H        -0.530801         0.034595         1.122314
 H        -0.386106         1.254150         0.078594
 H        -0.621647        -0.237429        -0.617854
 H         2.204399        -1.695404         1.215426
 H         2.415756        -2.035364        -0.493900
 H         5.409258         0.288759         0.529940
 H         4.852720         0.451177        -1.286495
 H         5.100306         2.417920         0.563960
 H         4.187859         2.600772        -0.956688
 H         2.500300         0.376999         1.940930
