19
Iteration:   397charge 0 multiplicity 1
 C         0.093404         0.300786        -0.140299
 C         1.516743        -0.045824         0.122139
 C         2.323601        -1.352776         0.314838
 C         3.321464        -0.149913         0.022273
 C         4.520897         0.636931        -0.400414
 C         4.100188         2.003616         0.018256
 O         2.925555         1.997411         0.790263
 C         2.615420         0.676174         1.033095
 O         2.321265         0.338780        -1.074735
 H        -0.463897         0.393135         0.800542
 H         0.057160         1.384590        -0.362229
 H        -0.418638        -0.336986        -0.837312
 H         2.354561        -1.870580         1.329150
 H         2.253662        -2.046262        -0.485146
 H         5.482376         0.367672         0.113322
 H         4.818816         0.384998        -1.403238
 H         5.042915         2.496898         0.561666
 H         4.046485         2.602991        -0.887043
 H         2.498515         0.461792         2.124738
