19
Iteration:   452
 C        -0.008697         0.017370         0.037646
 C         1.438416         0.045784        -0.026722
 C         2.369858        -1.216231         0.174552
 C         3.168802        -0.026430        -0.055954
 C         4.654770         0.446136        -0.110735
 C         4.302682         2.036711        -0.067660
 O         3.070627         2.031749         0.842757
 C         2.457615         0.753796         0.948131
 O         2.244588         0.403532        -1.172838
 H        -0.076457        -0.105625         1.141658
 H        -0.523904         0.966026        -0.214605
 H        -0.565092        -0.833137        -0.316436
 H         2.380816        -1.492217         1.280882
 H         2.582823        -2.025487        -0.480191
 H         5.281647         0.140529         0.761464
 H         5.035449         0.168867        -1.116658
 H         5.139575         2.627208         0.526974
 H         4.219256         2.385492        -1.089437
 H         2.402382         0.575012         2.026402
