19
Iteration:  4732charge 0 multiplicity 1
 C        -0.036099         0.041972        -0.213481
 C         1.435712         0.088796         0.114428
 C         2.219676        -1.193902         0.548148
 C         3.361993        -0.148445        -0.029841
 C         4.706395         0.532178        -0.386674
 C         4.103634         2.052482        -0.167398
 O         3.085672         2.087500         0.903075
 C         2.539166         0.820795         0.987593
 O         2.358380         0.231499        -1.086595
 H        -0.569480        -0.217699         0.698361
 H        -0.496071         0.987250        -0.577275
 H        -0.143029        -0.787642        -0.882222
 H         2.231466        -1.431376         1.605393
 H         2.278998        -2.141841        -0.044072
 H         5.346884         0.151073         0.414941
 H         4.953280         0.480889        -1.445882
 H         4.704582         2.853607         0.166616
 H         3.735932         2.194036        -1.211428
 H         2.420043         0.534733         2.023083
