19
Iteration:  1028
 C        -0.003255         0.200897         0.009664
 C         1.481374         0.011179         0.092630
 C         2.160299        -1.325609         0.358313
 C         3.344386        -0.137617        -0.036564
 C         4.650838         0.548287        -0.255485
 C         4.210905         2.117290        -0.049914
 O         2.973655         2.097127         0.799811
 C         2.588524         0.737676         0.932034
 O         2.347446         0.228887        -1.192282
 H        -0.390524         0.102561         1.017114
 H        -0.212849         1.238845        -0.239986
 H        -0.644264        -0.517005        -0.533733
 H         2.158346        -1.774889         1.318078
 H         2.075668        -2.149069        -0.380744
 H         5.570349         0.291693         0.413601
 H         5.055482         0.293805        -1.264142
 H         4.988510         2.711228         0.459803
 H         3.838744         2.570237        -0.999312
 H         2.752239         0.242062         1.915358
