19
Iteration:  3018charge 0 multiplicity 1
 C        -0.045078         0.022213        -0.014277
 C         1.458542        -0.125684         0.174828
 C         2.415605        -1.296256         0.320807
 C         3.259683        -0.051329        -0.078124
 C         4.592353         0.488547        -0.242424
 C         4.330409         2.000436        -0.062036
 O         3.032019         2.122450         0.706465
 C         2.523844         0.818279         0.941492
 O         2.146424         0.474874        -1.059904
 H        -0.611353         0.164609         0.878074
 H        -0.189977         1.019856        -0.554601
 H        -0.372420        -0.839503        -0.719563
 H         2.678555        -1.681899         1.393639
 H         2.134902        -2.096827        -0.434287
 H         5.357711         0.044762         0.555714
 H         5.019971         0.174843        -1.291121
 H         5.229275         2.363011         0.461118
 H         4.393844         2.465866        -1.023775
 H         2.596806         0.614077         1.945368
