19
Iteration:   735
 C         0.057609         0.179510         0.016347
 C         1.519157        -0.025409         0.095392
 C         2.272841        -1.274385         0.324394
 C         3.288046        -0.149063        -0.094680
 C         4.687653         0.577852        -0.290279
 C         4.212923         1.966051         0.135430
 O         2.911858         2.065039         0.602354
 C         2.570495         0.720148         0.911271
 O         2.263088         0.373707        -1.061459
 H        -0.451569        -0.180717         0.948852
 H        -0.146344         1.284499        -0.111583
 H        -0.485562        -0.249716        -0.871062
 H         2.223735        -1.711913         1.354710
 H         2.221944        -2.117309        -0.461910
 H         5.398023         0.134377         0.445443
 H         5.057908         0.464487        -1.374353
 H         4.824241         2.363245         0.945091
 H         4.242831         2.704157        -0.661757
 H         2.533393         0.404487         1.987944
