19
Iteration:  2970charge 0 multiplicity 1
 C        -0.048204         0.099616         0.164097
 C         1.483355        -0.027062         0.022602
 C         2.277200        -1.353701         0.342415
 C         3.251785        -0.130938        -0.086019
 C         4.662542         0.562668        -0.312042
 C         4.353577         2.037594         0.094502
 O         2.961532         2.146022         0.692972
 C         2.474094         0.864583         0.938698
 O         2.313686         0.275718        -1.222433
 H        -0.344717        -0.100835         1.240566
 H        -0.364601         1.118098         0.031331
 H        -0.532034        -0.535378        -0.575649
 H         2.241641        -1.646100         1.407322
 H         2.421304        -2.181761        -0.323584
 H         5.331060        -0.011893         0.153353
 H         4.861543         0.448548        -1.319526
 H         5.172704         2.332855         0.745237
 H         4.282086         2.737658        -0.799956
 H         2.597506         0.512540         1.968072
