19
Iteration:  3043charge 0 multiplicity 1
 C        -0.083084         0.135470        -0.031038
 C         1.453677         0.041091         0.118137
 C         2.423739        -1.312326         0.278509
 C         3.253992        -0.036941        -0.027420
 C         4.623749         0.503525        -0.265309
 C         4.208560         2.007450        -0.105511
 O         3.033434         2.081495         0.769671
 C         2.582994         0.814437         1.057373
 O         2.226173         0.284457        -1.103698
 H        -0.576094        -0.033537         0.989728
 H        -0.527030         1.073904        -0.386634
 H        -0.250778        -0.678533        -0.684855
 H         2.573444        -1.781812         1.242685
 H         2.323900        -2.015001        -0.598026
 H         5.342721         0.125753         0.611943
 H         5.111468         0.249348        -1.242804
 H         5.078432         2.620163         0.194645
 H         4.081788         2.304582        -1.142153
 H         2.645864         0.503464         2.102876
