19
Iteration:   712charge 0 multiplicity 1
 C        -0.080399         0.269344        -0.063023
 C         1.506293        -0.006411         0.172049
 C         2.420593        -1.321014         0.296843
 C         3.252256        -0.158600        -0.090853
 C         4.604925         0.576564        -0.330157
 C         4.339139         2.064793         0.129509
 O         2.897197         2.058610         0.710386
 C         2.589443         0.791085         1.018712
 O         2.261801         0.193881        -1.157607
 H        -0.808720        -0.236985         0.608848
 H        -0.234308         1.379294        -0.035338
 H        -0.376003         0.053333        -1.126659
 H         2.674772        -1.808848         1.295649
 H         2.159418        -2.108725        -0.466241
 H         5.334709         0.010797         0.322581
 H         4.792581         0.361164        -1.363816
 H         4.968122         2.490935         0.911110
 H         4.173168         2.803025        -0.631015
 H         2.707682         0.473969         2.078093
