19
Iteration:  3565charge 0 multiplicity 1
 C        -0.092443         0.145963        -0.043130
 C         1.439692        -0.028385         0.104585
 C         2.388760        -1.343205         0.321047
 C         3.246940        -0.053582         0.117223
 C         4.675518         0.514319        -0.285157
 C         4.302551         2.058910        -0.135851
 O         2.995444         2.002877         0.588593
 C         2.557486         0.777425         1.064455
 O         2.226871         0.397355        -1.049643
 H        -0.525172        -0.295735         0.874892
 H        -0.286973         1.225484        -0.197106
 H        -0.335520        -0.540441        -0.880193
 H         2.513967        -1.624534         1.367216
 H         2.357050        -2.161802        -0.431233
 H         5.426274         0.162533         0.658729
 H         4.948647         0.077373        -1.265162
 H         4.991311         2.729802         0.400256
 H         4.133945         2.513590        -1.082436
 H         2.518227         0.706224         2.247491
