19
Iteration:  2101charge 0 multiplicity 1
 C        -0.042322         0.249145         0.078147
 C         1.442902         0.011699         0.117751
 C         2.524859        -1.348808         0.321841
 C         3.299703        -0.041895        -0.146654
 C         4.717527         0.523181        -0.223248
 C         4.192520         1.995759         0.014759
 O         2.945841         2.104510         0.788642
 C         2.546306         0.733443         0.880857
 O         2.182752         0.206600        -1.207849
 H        -0.457218         0.268787         1.162931
 H        -0.307836         1.328302        -0.225985
 H        -0.695289        -0.446283        -0.418052
 H         2.539399        -1.755421         1.398666
 H         2.388514        -2.076312        -0.427498
 H         5.273436         0.280594         0.682462
 H         5.130070         0.446536        -1.218734
 H         4.865694         2.665679         0.387356
 H         3.790128         2.418855        -1.001158
 H         2.760313         0.467743         1.876573
