19
Iteration:  3324charge 0 multiplicity 1
 C        -0.095126         0.098404        -0.066592
 C         1.440937         0.012057         0.084596
 C         2.411735        -1.358379         0.313464
 C         3.241118        -0.052307         0.002570
 C         4.625976         0.520982        -0.189581
 C         4.231087         1.993668        -0.243197
 O         3.004562         2.091576         0.786825
 C         2.569610         0.838319         1.008140
 O         2.292566         0.363819        -1.058940
 H        -0.451705        -0.073709         1.035427
 H        -0.524830         1.083888        -0.262765
 H        -0.557502        -0.687319        -0.672517
 H         2.463855        -2.046536         1.254968
 H         2.386555        -2.082742        -0.468883
 H         5.258124         0.195028         0.721468
 H         5.209718         0.108983        -1.036144
 H         5.193882         2.666865         0.127590
 H         4.051551         2.496802        -1.219504
 H         2.634759         0.478438         1.999452
