19
Iteration:  1426
 C         0.050226         0.109505         0.033113
 C         1.524040        -0.011581         0.147733
 C         2.282495        -1.338678         0.298842
 C         3.240518        -0.085083        -0.113854
 C         4.612799         0.522470        -0.330240
 C         4.325607         2.033787         0.081623
 O         2.923517         2.153198         0.701078
 C         2.568620         0.800151         0.950311
 O         2.244162         0.290900        -1.143086
 H        -0.374168        -0.458846         0.859607
 H        -0.302773         1.125433         0.092030
 H        -0.396520        -0.366132        -0.846006
 H         2.434794        -1.642789         1.353000
 H         1.964280        -2.241935        -0.336627
 H         5.357647         0.056743         0.423256
 H         5.029232         0.416339        -1.322690
 H         4.928002         2.479398         0.836569
 H         4.313196         2.538482        -0.831032
 H         2.632920         0.676557         2.063474
