19
Iteration:   739charge 0 multiplicity 1
 C         0.029673         0.154263         0.030204
 C         1.540145        -0.027380         0.059859
 C         2.271406        -1.310168         0.302610
 C         3.308652        -0.200933        -0.094144
 C         4.670480         0.566440        -0.286299
 C         4.227804         1.971283         0.128419
 O         2.899598         2.067622         0.614607
 C         2.569562         0.790527         0.926473
 O         2.275722         0.396742        -1.072934
 H        -0.468811        -0.057723         0.986865
 H        -0.084351         1.248439        -0.018391
 H        -0.520789        -0.324762        -0.805830
 H         2.279388        -1.697151         1.298087
 H         2.145155        -2.072984        -0.429372
 H         5.284109         0.150046         0.489643
 H         5.027300         0.328754        -1.344168
 H         4.849119         2.383603         0.944280
 H         4.240434         2.789738        -0.614659
 H         2.553895         0.544797         2.049015
