19
Iteration:  3057
 C        -0.043138         0.138124         0.032810
 C         1.492954         0.053293         0.113875
 C         2.294779        -1.317040         0.330054
 C         3.320675        -0.218296        -0.016379
 C         4.594064         0.552328        -0.226268
 C         4.179923         2.039619        -0.175770
 O         3.026125         2.141445         0.832384
 C         2.574045         0.734405         0.912781
 O         2.343041         0.305682        -1.148770
 H        -0.506548        -0.158905         1.000593
 H        -0.308188         1.139597        -0.253118
 H        -0.460785        -0.482297        -0.727085
 H         2.376262        -1.780363         1.273246
 H         2.033112        -1.970700        -0.432783
 H         5.368476         0.353635         0.437379
 H         4.991125         0.372650        -1.184053
 H         4.891691         2.682162         0.309656
 H         3.668494         2.498226        -1.049230
 H         2.610694         0.454784         2.071951
