19
Iteration:  2719charge 0 multiplicity 1
 C        -0.091092         0.069447         0.111895
 C         1.443214        -0.000630         0.105985
 C         2.436463        -1.229281         0.281042
 C         3.322833        -0.083724        -0.043044
 C         4.678044         0.532196        -0.264832
 C         4.291812         1.987754         0.096131
 O         2.922847         2.074482         0.569257
 C         2.476698         0.852269         0.959537
 O         2.274735         0.307710        -1.134138
 H        -0.466026        -0.496283         1.023350
 H        -0.353335         1.130749         0.034629
 H        -0.469767        -0.426086        -0.724448
 H         2.403630        -1.699690         1.280393
 H         2.273301        -1.936346        -0.641444
 H         5.247663        -0.155369         0.442787
 H         5.048050         0.413474        -1.263533
 H         4.982935         2.438969         0.693879
 H         4.541018         2.541622        -0.877613
 H         2.456590         0.593510         2.138780
