19
Iteration:   686charge 0 multiplicity 1
 C         0.028631         0.231548        -0.012963
 C         1.476097        -0.110995         0.009470
 C         2.361004        -1.337352         0.341820
 C         3.223392        -0.017875        -0.022563
 C         4.643030         0.566305        -0.332250
 C         4.362496         2.038603         0.067341
 O         3.009571         2.101976         0.807624
 C         2.405923         0.783875         0.972911
 O         2.236836         0.230599        -1.153107
 H        -0.520621        -0.448169         0.610079
 H        -0.235603         1.263593         0.002505
 H        -0.275422        -0.054257        -1.019814
 H         2.447425        -1.761013         1.357475
 H         2.361119        -2.129049        -0.367923
 H         5.382060        -0.035699         0.163986
 H         4.664396         0.350501        -1.371961
 H         5.079992         2.549271         0.750023
 H         4.092222         2.668004        -0.824207
 H         2.577451         0.478235         1.980724
