19
Iteration:   373charge 0 multiplicity 1
 C        -0.016929         0.362779        -0.002920
 C         1.488506        -0.005113         0.048935
 C         2.442080        -1.357764         0.294794
 C         3.304597        -0.086538        -0.046167
 C         4.653769         0.468899        -0.399422
 C         4.202376         2.090178         0.033254
 O         2.838835         2.043385         0.867674
 C         2.478219         0.695436         1.001293
 O         2.381390         0.237749        -1.140814
 H        -0.592170         0.029593         0.905190
 H        -0.215809         1.449605         0.089111
 H        -0.454853        -0.089196        -0.922122
 H         2.527961        -1.725098         1.343327
 H         2.294117        -2.180557        -0.468655
 H         5.594266         0.109886         0.197187
 H         4.975341         0.221814        -1.409744
 H         4.909810         2.923949         0.435864
 H         3.962295         2.403398        -1.014897
 H         2.367477         0.390498         2.097410
