19
Iteration:  1193charge 0 multiplicity 1
 C         0.029818         0.172428         0.068632
 C         1.495409         0.077817         0.089796
 C         2.309532        -1.285100         0.298329
 C         3.294172        -0.206113        -0.096220
 C         4.692284         0.566094        -0.194135
 C         4.246076         1.997811         0.025509
 O         2.933311         2.084686         0.607938
 C         2.551172         0.706437         0.944085
 O         2.190112         0.349993        -1.092488
 H        -0.354501         0.154472         1.079030
 H        -0.110633         1.013111        -0.585600
 H        -0.262260        -0.771415        -0.400058
 H         2.275297        -1.658969         1.362951
 H         2.205174        -2.087421        -0.434840
 H         5.436881         0.152766         0.524994
 H         5.216400         0.358982        -1.184379
 H         4.896531         2.427464         0.727133
 H         4.228437         2.557850        -0.933582
 H         2.589053         0.600194         1.995359
