19
Iteration:  3316charge 0 multiplicity 1
 C        -0.094290         0.184430        -0.056187
 C         1.379073        -0.055088         0.062522
 C         2.459928        -1.329485         0.342884
 C         3.247801        -0.067933        -0.045314
 C         4.665444         0.576287        -0.201609
 C         4.258831         2.005041        -0.171745
 O         3.009923         2.124082         0.756822
 C         2.575613         0.733794         1.011602
 O         2.233558         0.312319        -1.072073
 H        -0.404647        -0.146349         0.981503
 H        -0.395936         1.170271        -0.336601
 H        -0.488755        -0.577028        -0.730380
 H         2.521587        -1.613067         1.451922
 H         2.328453        -2.069308        -0.431581
 H         5.153356         0.213270         0.671714
 H         5.261756         0.243747        -0.989932
 H         5.081370         2.598358         0.239427
 H         3.895149         2.287321        -1.119385
 H         2.764508         0.401873         2.036814
