19
Iteration:  1638charge 0 multiplicity 1
 C        -0.135594         0.042278         0.031113
 C         1.424001        -0.129486         0.115762
 C         2.460920        -1.322209         0.262300
 C         3.232660        -0.039485        -0.089111
 C         4.575412         0.460092        -0.187756
 C         4.339912         2.065028        -0.089545
 O         3.096641         2.103848         0.733096
 C         2.500049         0.826878         0.972842
 O         2.212881         0.456972        -1.108112
 H        -0.477711        -0.503769         0.928288
 H        -0.215359         1.133337         0.135326
 H        -0.624424        -0.464833        -0.783461
 H         2.600238        -1.893540         1.252233
 H         2.192509        -2.021243        -0.479310
 H         5.283800         0.226394         0.676719
 H         5.064659         0.105928        -1.202274
 H         5.156414         2.604701         0.367332
 H         4.343374         2.538881        -1.110964
 H         2.477558         0.523615         2.063041
