19
Iteration:  2920
 C         0.061383         0.222946         0.010648
 C         1.491799        -0.048321         0.179724
 C         2.350601        -1.347328         0.269214
 C         3.251627        -0.151227        -0.118339
 C         4.636698         0.570207        -0.285141
 C         4.258624         2.071633         0.095725
 O         2.830486         2.119798         0.552664
 C         2.673365         0.740655         0.954372
 O         2.199130         0.287297        -1.012118
 H        -0.404836        -0.118718         0.891366
 H        -0.120763         1.316140         0.106150
 H        -0.334169        -0.177534        -0.973672
 H         2.596105        -1.806499         1.267512
 H         2.042239        -2.087987        -0.449306
 H         5.333079        -0.083121         0.435725
 H         5.142843         0.311941        -1.319179
 H         4.961034         2.465385         0.881396
 H         4.318930         2.600252        -0.834133
 H         2.816220         0.417160         2.101802
