19
Iteration:  2291
 C         0.038438         0.180157         0.029208
 C         1.480223        -0.039592         0.179556
 C         2.360270        -1.309929         0.267830
 C         3.285310        -0.115042        -0.085357
 C         4.593449         0.557573        -0.263299
 C         4.222635         2.023833        -0.073506
 O         2.972769         2.118956         0.759699
 C         2.581147         0.774049         0.913245
 O         2.207606         0.284189        -1.098962
 H        -0.423758         0.119088         1.037228
 H        -0.094298         1.202511        -0.338205
 H        -0.494117        -0.676152        -0.583292
 H         2.511718        -1.743759         1.339215
 H         2.269234        -2.206089        -0.444699
 H         5.142866         0.197940         0.648155
 H         5.075710         0.387457        -1.260916
 H         5.033991         2.515510         0.430448
 H         4.072141         2.365359        -1.047965
 H         2.801990         0.589100         2.070569
