19
Iteration:  1047
 C         0.025678         0.298530         0.070883
 C         1.526393         0.048201         0.072330
 C         2.278217        -1.278688         0.263178
 C         3.300944        -0.164445        -0.051610
 C         4.701410         0.604701        -0.227002
 C         4.123896         1.997819        -0.109155
 O         2.938402         1.983744         0.677671
 C         2.594338         0.692361         1.015182
 O         2.309711         0.260059        -1.071539
 H        -0.471856        -0.121145         0.983276
 H        -0.255200         1.353481        -0.121056
 H        -0.238246        -0.294644        -0.810733
 H         2.177397        -1.716159         1.346872
 H         1.994887        -2.034157        -0.540906
 H         5.273108         0.456416         0.745221
 H         5.296336         0.523138        -1.094071
 H         4.678797         2.724416         0.459577
 H         4.006872         2.327964        -1.098811
 H         2.484419         0.542488         2.059896
