19
Iteration:  3549
 C        -0.062643        -0.000097        -0.026920
 C         1.432955        -0.010199         0.086558
 C         2.356018        -1.249212         0.329193
 C         3.265967        -0.110531        -0.007808
 C         4.576368         0.427381        -0.266931
 C         4.263813         1.951664        -0.059185
 O         3.015349         2.220595         0.660213
 C         2.582733         0.895853         1.001114
 O         2.312156         0.340741        -1.021675
 H        -0.497024        -0.256280         0.964127
 H        -0.450916         0.999903        -0.231286
 H        -0.487412        -0.650088        -0.800043
 H         2.297906        -1.850246         1.316023
 H         2.272674        -1.919773        -0.538795
 H         5.325007         0.089425         0.298953
 H         4.847099         0.444331        -1.329451
 H         5.130519         2.291946         0.531809
 H         4.194078         2.431450        -1.081162
 H         2.670968         0.639602         2.019992
