19
Iteration:   809charge 0 multiplicity 1
 C        -0.034942         0.045693        -0.060859
 C         1.467952         0.057437         0.091248
 C         2.287960        -1.254814         0.316247
 C         3.215664        -0.058024        -0.119284
 C         4.599169         0.522372        -0.188632
 C         4.251838         1.998761        -0.036756
 O         3.068835         2.037005         0.826583
 C         2.632596         0.793219         0.909790
 O         2.259797         0.345059        -1.110533
 H        -0.525324         0.012108         0.910954
 H        -0.454803         0.934396        -0.539112
 H        -0.363247        -0.793870        -0.633428
 H         2.326805        -1.679821         1.320226
 H         1.998668        -1.971061        -0.501166
 H         5.037152         0.221546         0.794316
 H         5.274532         0.549710        -0.965322
 H         5.095048         2.615834         0.374731
 H         4.004376         2.482877        -1.015368
 H         2.831923         0.313567         1.893061
