19
Iteration:   906charge 0 multiplicity 1
 C        -0.002066         0.256621         0.086642
 C         1.392557        -0.035016         0.065199
 C         2.400079        -1.304288         0.253693
 C         3.251143        -0.136710        -0.062233
 C         4.619525         0.578280        -0.169898
 C         4.234138         2.069205        -0.096723
 O         2.991912         2.060353         0.785227
 C         2.559633         0.721962         0.946221
 O         2.298076         0.231005        -1.200046
 H        -0.611934        -0.200579         0.854990
 H        -0.136908         1.333520         0.222681
 H        -0.335145        -0.043762        -0.885675
 H         2.293334        -1.560780         1.231521
 H         2.479480        -2.136373        -0.438020
 H         4.901147         0.279359         0.902074
 H         5.241247         0.119881        -0.873671
 H         4.919184         2.765335         0.417282
 H         4.119180         2.497704        -1.106321
 H         2.554576         0.529679         2.066941
