19
Iteration:  2462charge 0 multiplicity 1
 C        -0.020297         0.129758         0.086802
 C         1.484302         0.012201         0.184776
 C         2.409648        -1.278875         0.326842
 C         3.236223        -0.035010        -0.164550
 C         4.663689         0.501217        -0.280754
 C         4.332462         2.049003         0.079674
 O         2.932501         2.094698         0.580820
 C         2.562029         0.748281         0.981269
 O         2.133629         0.289539        -1.130089
 H        -0.635058         0.157372         0.993197
 H        -0.148893         0.927455        -0.598779
 H        -0.338393        -0.769276        -0.443505
 H         2.865045        -1.653911         1.274155
 H         2.185334        -2.180792        -0.405492
 H         5.400144         0.085420         0.443805
 H         5.002866         0.289404        -1.312815
 H         4.843403         2.369556         0.977557
 H         4.608964         2.779182        -0.756357
 H         2.655448         0.385044         2.076362
