19
Iteration:  1517charge 0 multiplicity 1
 C        -0.100419         0.150005         0.045995
 C         1.490908         0.023202         0.121618
 C         2.256835        -1.308457         0.266189
 C         3.404801        -0.186132        -0.025410
 C         4.729870         0.588564        -0.212137
 C         4.113426         2.019670        -0.093677
 O         2.990405         2.054302         0.746010
 C         2.621385         0.704029         0.886241
 O         2.275101         0.393347        -1.081547
 H        -0.446982        -0.019413         1.088497
 H        -0.237078         1.162228        -0.398995
 H        -0.432560        -0.678817        -0.565392
 H         2.224194        -1.860323         1.247020
 H         2.034283        -2.015673        -0.560251
 H         5.311893         0.271252         0.742543
 H         5.324884         0.386510        -1.203238
 H         4.884022         2.751373         0.292555
 H         3.796655         2.549235        -1.061494
 H         2.617077         0.453465         1.958196
