19
Iteration:  3815
 C        -0.067213         0.268316         0.024154
 C         1.434129        -0.042757         0.128158
 C         2.341083        -1.350490         0.421913
 C         3.334918        -0.144401        -0.007559
 C         4.617274         0.660891        -0.358785
 C         4.230229         2.017071         0.077897
 O         2.948316         2.043089         0.670487
 C         2.558349         0.759479         0.853146
 O         2.354854         0.213214        -1.122793
 H        -0.498194         0.087413         0.997843
 H        -0.239588         1.290398        -0.474240
 H        -0.463436        -0.523848        -0.722872
 H         2.375318        -1.710893         1.483038
 H         2.068132        -2.119576        -0.426401
 H         5.578215         0.349001         0.002134
 H         4.802644         0.625564        -1.359990
 H         4.848186         2.592925         0.906453
 H         4.252037         2.773312        -0.741841
 H         2.565980         0.560958         1.940158
