19
Iteration:  3319
 C        -0.098610         0.160238        -0.059415
 C         1.387060        -0.036937         0.068262
 C         2.452963        -1.345531         0.346136
 C         3.239861        -0.058915        -0.026637
 C         4.654214         0.578224        -0.193990
 C         4.258740         1.998734        -0.194731
 O         3.002244         2.114400         0.770154
 C         2.577320         0.770773         1.005892
 O         2.253675         0.331617        -1.065779
 H        -0.344808        -0.117878         0.920062
 H        -0.481475         1.177237        -0.311581
 H        -0.512794        -0.641310        -0.700431
 H         2.487395        -1.743467         1.325055
 H         2.336426        -2.116507        -0.478433
 H         5.188095         0.148154         0.653868
 H         5.311062         0.137919        -1.004152
 H         5.070301         2.522289         0.124311
 H         3.961487         2.394414        -1.198676
 H         2.752216         0.362775         2.091884
