19
Iteration:  1263charge 0 multiplicity 1
 C        -0.058230         0.197741        -0.036055
 C         1.503112        -0.027127         0.120047
 C         2.463855        -1.332040         0.319231
 C         3.268443        -0.078932        -0.069852
 C         4.599510         0.488007        -0.172790
 C         4.224888         2.005655        -0.114683
 O         2.986528         2.119804         0.736643
 C         2.577607         0.759941         0.989836
 O         2.168775         0.328164        -1.092910
 H        -0.682572        -0.381715         0.629165
 H        -0.189898         1.276157        -0.039143
 H        -0.267634        -0.175866        -1.043196
 H         2.539040        -1.722794         1.289989
 H         2.413802        -2.133676        -0.402931
 H         5.277365         0.238177         0.679813
 H         5.206635         0.362293        -1.082150
 H         5.049530         2.532713         0.415652
 H         3.950574         2.373829        -1.099865
 H         2.785550         0.359142         1.962122
