19
Iteration:  2525charge 0 multiplicity 1
 C         0.006286         0.030005         0.078485
 C         1.433001         0.046488         0.010339
 C         2.324832        -1.262139         0.406652
 C         3.231149        -0.107663        -0.047567
 C         4.677183         0.567042        -0.322073
 C         4.231416         1.988601         0.004656
 O         3.062097         2.143610         0.744203
 C         2.555669         0.809808         0.953258
 O         2.247908         0.273943        -1.198130
 H        -0.362638        -0.574602         1.000136
 H        -0.456966         1.054013         0.123693
 H        -0.365637        -0.476812        -0.806779
 H         2.319199        -1.538309         1.460246
 H         2.103243        -2.111073        -0.370501
 H         5.361423         0.109489         0.401061
 H         4.816678         0.401149        -1.370871
 H         5.004278         2.477864         0.640572
 H         4.137824         2.521491        -0.861770
 H         2.495091         0.646017         2.071689
