19
Iteration:   432charge 0 multiplicity 1
 C        -0.117602         0.119390        -0.039988
 C         1.445245        -0.019014         0.132868
 C         2.372555        -1.316420         0.240055
 C         3.311222        -0.116408        -0.104503
 C         4.628533         0.506361        -0.244364
 C         4.206391         1.983659         0.025058
 O         3.032770         2.130389         0.823532
 C         2.600583         0.740552         0.935764
 O         2.288430         0.388407        -1.102294
 H        -0.578083         0.173418         0.923047
 H        -0.228124         0.995139        -0.683589
 H        -0.595200        -0.641938        -0.652638
 H         2.542775        -1.847355         1.192651
 H         2.140528        -1.903776        -0.646089
 H         5.171615         0.306834         0.612692
 H         5.081360         0.360536        -1.251879
 H         4.960626         2.615439         0.590315
 H         3.886744         2.376679        -0.944573
 H         2.642803         0.540854         2.021746
