19
Iteration:  3132charge 0 multiplicity 1
 C         0.005475         0.212809         0.006019
 C         1.493873        -0.030515         0.157748
 C         2.342149        -1.304525         0.279549
 C         3.358031        -0.136851         0.032018
 C         4.605972         0.574426        -0.199573
 C         4.259352         2.025007        -0.166240
 O         2.891536         2.024104         0.685856
 C         2.608556         0.729958         0.994614
 O         2.207909         0.347777        -1.079682
 H        -0.746884         0.019820         0.828867
 H        -0.090213         1.241240        -0.263682
 H        -0.240712        -0.340858        -0.870668
 H         2.386360        -1.680150         1.296857
 H         2.384609        -2.018018        -0.473347
 H         5.411383         0.188950         0.516755
 H         5.037601         0.285928        -1.131248
 H         4.989811         2.633436         0.298722
 H         3.751999         2.497077        -0.997148
 H         2.962323         0.428636         1.885476
