19
Iteration:   761
 C        -0.047528         0.154769         0.113739
 C         1.450083         0.025151         0.078780
 C         2.389838        -1.297938         0.160429
 C         3.192555        -0.047647        -0.024309
 C         4.645708         0.459502        -0.186989
 C         4.324575         1.996872         0.093326
 O         2.946237         2.159248         0.627289
 C         2.486388         0.733661         0.959811
 O         2.352719         0.304129        -1.152143
 H        -0.330479        -0.041172         1.168135
 H        -0.573929         1.075865        -0.178003
 H        -0.465113        -0.696752        -0.462811
 H         2.406921        -1.879488         1.061808
 H         2.439544        -1.911346        -0.703394
 H         5.325330        -0.035412         0.505982
 H         4.905956         0.350915        -1.299471
 H         4.980013         2.539079         0.802010
 H         4.336797         2.602118        -0.839131
 H         2.416353         0.347284         2.035087
