19
Iteration:  3347charge 0 multiplicity 1
 C         0.035909        -0.009007        -0.008044
 C         1.455449         0.028124         0.121490
 C         2.251530        -1.178900         0.189231
 C         3.310398        -0.096449         0.099045
 C         4.663901         0.496339        -0.212766
 C         4.125186         1.924507        -0.140738
 O         3.081410         2.151679         0.716198
 C         2.472739         0.801469         1.019684
 O         2.344712         0.393157        -1.058159
 H        -0.461688        -0.240329         1.040346
 H        -0.459145         0.851597        -0.410038
 H        -0.112349        -0.911220        -0.605880
 H         2.105004        -1.800241         1.194216
 H         2.066113        -1.909027        -0.551311
 H         5.425455         0.035843         0.459949
 H         4.997996         0.234718        -1.177786
 H         5.095879         2.675042        -0.123706
 H         3.864165         2.137280        -1.169036
 H         2.408872         0.678982         2.042284
