19
Iteration:  4259charge 0 multiplicity 1
 C        -0.051538         0.062492        -0.055705
 C         1.449702        -0.001826         0.089736
 C         2.289936        -1.253992         0.439217
 C         3.287834        -0.104010         0.065035
 C         4.608697         0.580106        -0.383525
 C         4.295231         2.018988         0.074725
 O         2.994599         2.078519         0.621734
 C         2.564682         0.835235         0.961551
 O         2.282403         0.251156        -1.107069
 H        -0.562423        -0.131102         0.934723
 H        -0.353496         1.147974        -0.337608
 H        -0.507776        -0.707293        -0.796939
 H         2.486710        -1.782521         1.410830
 H         2.352641        -1.914604        -0.431071
 H         5.506405         0.371761         0.065945
 H         4.659923         0.444217        -1.486538
 H         5.127828         2.392421         0.749646
 H         4.457505         2.804918        -0.695431
 H         2.587708         0.505628         2.094071
