19
Iteration:  1190
 C         0.014635         0.167934         0.052481
 C         1.468794         0.046350         0.098344
 C         2.333459        -1.275026         0.289952
 C         3.282791        -0.176287        -0.051641
 C         4.675713         0.565115        -0.209357
 C         4.264266         1.972588         0.018333
 O         2.941137         2.082229         0.611531
 C         2.585877         0.738404         0.938020
 O         2.177076         0.348390        -1.102498
 H        -0.371253         0.200325         1.073458
 H        -0.106674         1.037534        -0.611109
 H        -0.337392        -0.789304        -0.426859
 H         2.308678        -1.719435         1.349081
 H         2.315985        -2.097213        -0.530516
 H         5.357864         0.215334         0.573834
 H         5.121011         0.402126        -1.114794
 H         4.922572         2.436053         0.773346
 H         4.245765         2.480328        -0.906962
 H         2.662265         0.530074         2.071765
