19
Iteration:  3628
 C         0.026331         0.345594         0.071106
 C         1.459977        -0.053295        -0.052434
 C         2.309496        -1.316402         0.364248
 C         3.352005        -0.108188         0.045528
 C         4.691490         0.629071        -0.226993
 C         4.026698         1.996060        -0.141392
 O         3.035013         2.008514         0.787860
 C         2.517953         0.758981         0.860440
 O         2.374837         0.171009        -1.095215
 H        -0.350293        -0.012745         1.103009
 H        -0.194304         1.400264        -0.009207
 H        -0.714278        -0.174157        -0.553016
 H         2.245965        -1.603637         1.505696
 H         2.132853        -2.176588        -0.337179
 H         5.475361         0.500358         0.478292
 H         5.185964         0.559239        -1.139331
 H         4.748833         2.797132         0.060963
 H         3.552036         2.275812        -1.101645
 H         2.286160         0.580823         1.898588
