19
Iteration:  3725charge 0 multiplicity 1
 C         0.048764        -0.033350         0.121956
 C         1.497004         0.089068         0.077785
 C         2.297964        -1.212343         0.330603
 C         3.232470        -0.097782        -0.091471
 C         4.581503         0.486957        -0.218985
 C         4.418123         1.980368         0.073471
 O         2.997722         2.201922         0.750540
 C         2.454186         0.920447         0.865800
 O         2.231522         0.209590        -1.255583
 H        -0.294615        -0.496868         1.115229
 H        -0.634144         0.789018        -0.034155
 H        -0.176640        -0.789400        -0.615517
 H         2.340409        -1.515135         1.373930
 H         2.085509        -1.983205        -0.402146
 H         5.301158        -0.063239         0.288290
 H         4.815613         0.332134        -1.263521
 H         5.224414         2.419009         0.743721
 H         4.417179         2.624259        -0.902420
 H         2.415754         0.558998         1.896861
