19
Iteration:  1538charge 0 multiplicity 1
 C         0.028877         0.277768         0.018924
 C         1.514737        -0.058368         0.141887
 C         2.432322        -1.321559         0.236276
 C         3.206724        -0.052838        -0.146443
 C         4.581162         0.563910        -0.179275
 C         4.171094         2.026261        -0.157442
 O         2.998391         2.050596         0.806896
 C         2.561283         0.702234         1.067413
 O         2.230425         0.275789        -1.132182
 H        -0.325351         0.233375         1.074186
 H         0.134130         1.234833        -0.540725
 H        -0.360457        -0.512003        -0.615497
 H         2.485461        -1.831198         1.239709
 H         2.346637        -2.106721        -0.569906
 H         5.007962         0.301498         0.888452
 H         5.205119         0.381424        -1.152956
 H         4.818127         2.830965         0.240858
 H         3.932996         2.386429        -1.204354
 H         2.659740         0.260065         2.106084
