19
Iteration:  2598
 C         0.049487         0.232273         0.016243
 C         1.560795        -0.032067         0.118761
 C         2.287301        -1.344340         0.252681
 C         3.334990        -0.123306         0.014516
 C         4.656628         0.517316        -0.274008
 C         4.004884         1.980161        -0.169563
 O         2.930504         2.049262         0.702703
 C         2.501108         0.757641         1.064159
 O         2.438914         0.359119        -1.056533
 H        -0.334571        -0.058796         0.996484
 H        -0.221912         1.314103        -0.106045
 H        -0.579356        -0.319510        -0.603788
 H         2.281585        -1.697550         1.289007
 H         2.197728        -2.057202        -0.525387
 H         5.390241         0.470075         0.548930
 H         4.975522         0.442039        -1.315173
 H         4.808542         2.690713         0.310007
 H         3.743029         2.432217        -1.252787
 H         2.615326         0.445225         2.083784
