19
Iteration:  3023
 C        -0.026581         0.022380        -0.037263
 C         1.448962        -0.137708         0.179768
 C         2.432964        -1.244046         0.319789
 C         3.275165        -0.067218        -0.081613
 C         4.608711         0.480473        -0.237859
 C         4.322771         1.981580        -0.077764
 O         3.048940         2.110481         0.709426
 C         2.497833         0.827901         0.921924
 O         2.135954         0.458705        -1.029443
 H        -0.656923         0.142474         0.897838
 H        -0.057647         0.968617        -0.526868
 H        -0.494861        -0.676751        -0.671103
 H         2.654804        -1.660477         1.248402
 H         2.228500        -1.975183        -0.443913
 H         5.222583         0.051170         0.531224
 H         4.945978         0.222968        -1.196136
 H         5.194873         2.414967         0.452212
 H         4.248877         2.563001        -1.047933
 H         2.557198         0.539379         2.071248
