19
Iteration:  1937
 C        -0.071300         0.152061         0.161192
 C         1.469032         0.056195         0.079921
 C         2.436278        -1.314108         0.168821
 C         3.273511        -0.108367        -0.078667
 C         4.625269         0.505448        -0.319792
 C         4.258395         2.023867         0.125815
 O         2.943512         2.070364         0.532955
 C         2.529057         0.790645         0.993130
 O         2.273369         0.309053        -1.042532
 H        -0.307495         0.046464         1.274011
 H        -0.508797         1.127294        -0.196225
 H        -0.451476        -0.751029        -0.350887
 H         2.676131        -1.761672         1.220008
 H         2.354594        -2.140905        -0.591797
 H         5.387284         0.094259         0.344835
 H         4.780352         0.641210        -1.412312
 H         4.831575         2.320889         0.995876
 H         4.621533         2.698689        -0.755419
 H         2.423605         0.439013         2.086609
