19
Iteration:   970
 C        -0.067226        -0.009957        -0.098158
 C         1.477184         0.006458         0.197069
 C         2.264530        -1.295187         0.292910
 C         3.239976        -0.103312        -0.159163
 C         4.632582         0.498636        -0.266687
 C         4.315492         1.988749         0.041384
 O         3.084845         2.131329         0.670396
 C         2.567158         0.842050         1.013581
 O         2.206969         0.384129        -1.034796
 H        -0.584774         0.106158         0.880911
 H        -0.276815         0.896377        -0.700776
 H        -0.411650        -0.895475        -0.634073
 H         2.465104        -1.673724         1.344430
 H         2.149384        -2.094097        -0.449479
 H         5.259281         0.222846         0.632113
 H         5.192547         0.464456        -1.195091
 H         5.057389         2.555823         0.589673
 H         4.247203         2.410887        -0.926009
 H         2.599149         0.686240         2.073188
