19
Iteration:  1012
 C        -0.020194         0.188556         0.015869
 C         1.422107        -0.018015         0.029385
 C         2.383204        -1.295543         0.334115
 C         3.227844        -0.127108        -0.059784
 C         4.586908         0.545269        -0.319679
 C         4.218145         2.042438        -0.002174
 O         3.087588         2.108576         0.827188
 C         2.475637         0.809337         0.942487
 O         2.345220         0.207655        -1.124854
 H        -0.511327         0.202736         1.024986
 H        -0.279899         1.105536        -0.572146
 H        -0.470487        -0.665301        -0.548785
 H         2.397073        -1.624908         1.498755
 H         2.235685        -2.077913        -0.422979
 H         5.274196        -0.024951         0.319517
 H         5.033653         0.537123        -1.332133
 H         5.130897         2.478904         0.469942
 H         4.005479         2.578019        -0.927318
 H         2.264642         0.740923         2.007591
