19
Iteration:  1698
 C        -0.059272         0.127786         0.032401
 C         1.466326        -0.085076         0.019122
 C         2.365075        -1.297285         0.290260
 C         3.297173        -0.065799        -0.083913
 C         4.622684         0.544518        -0.310446
 C         4.213130         1.957958        -0.070274
 O         3.002119         2.129527         0.782281
 C         2.570819         0.739163         1.007592
 O         2.296550         0.344672        -1.064916
 H        -0.341107         0.072716         1.102185
 H        -0.340043         1.182358        -0.168091
 H        -0.777990        -0.502326        -0.526465
 H         2.254057        -1.652218         1.298497
 H         2.148918        -2.091350        -0.484494
 H         5.360143         0.304147         0.421608
 H         4.998943         0.501063        -1.302087
 H         5.039919         2.491464         0.554218
 H         4.005688         2.584714        -0.996331
 H         2.688491         0.517392         2.040858
