19
Iteration:  4137
 C         0.030108         0.287133         0.011412
 C         1.472091        -0.063426         0.143859
 C         2.367773        -1.328806         0.294140
 C         3.306103        -0.149537        -0.019212
 C         4.707152         0.584519        -0.199414
 C         4.122392         2.065069        -0.112135
 O         2.887884         2.034547         0.644177
 C         2.556746         0.695037         0.924834
 O         2.301847         0.278085        -1.008236
 H        -0.592461        -0.040093         0.874406
 H         0.023602         1.438751         0.026672
 H        -0.455402        -0.053936        -0.950598
 H         2.436295        -1.889790         1.188930
 H         2.323435        -2.089271        -0.548498
 H         5.251402         0.346407         0.615805
 H         5.232038         0.503355        -1.170317
 H         4.939498         2.701952         0.383710
 H         3.937433         2.518543        -1.139722
 H         2.640501         0.526113         2.060399
