19
Iteration:  3599charge 0 multiplicity 1
 C         0.075014         0.346700         0.039030
 C         1.514544        -0.024068         0.133795
 C         2.367011        -1.373495         0.315918
 C         3.235772        -0.118782        -0.094128
 C         4.594875         0.452733        -0.154733
 C         4.044251         2.089224        -0.161585
 O         2.916865         2.142281         0.738302
 C         2.660743         0.803331         1.015957
 O         2.365523         0.164997        -1.162776
 H        -0.345187        -0.153369         0.866800
 H        -0.262013         1.424584         0.044587
 H        -0.376658        -0.118280        -0.888893
 H         2.369640        -1.794951         1.274889
 H         2.125624        -2.168327        -0.454774
 H         5.209131         0.086151         0.850867
 H         5.279930         0.311149        -1.063350
 H         4.802615         2.840390         0.090913
 H         3.610410         2.163877        -1.133506
 H         2.688037         0.435143         2.107268
