19
Iteration:  1585
 C         0.044050         0.254183         0.039064
 C         1.495046        -0.047622         0.089512
 C         2.252257        -1.300170         0.303365
 C         3.304012        -0.147237        -0.045995
 C         4.592440         0.642224        -0.376193
 C         4.129309         2.039601        -0.013792
 O         2.981653         2.010524         0.762492
 C         2.594867         0.718348         0.983122
 O         2.366545         0.256374        -1.073800
 H        -0.416896        -0.057611         0.985550
 H        -0.219244         1.303140        -0.223641
 H        -0.433787        -0.328633        -0.784739
 H         2.156656        -1.709241         1.341545
 H         2.209718        -2.069607        -0.405032
 H         5.308379         0.461010         0.458663
 H         4.870554         0.631332        -1.473883
 H         5.029603         2.613924         0.388428
 H         3.886598         2.561586        -1.034631
 H         2.621331         0.455841         2.018606
