19
Iteration:   905charge 0 multiplicity 1
 C        -0.006828         0.263092         0.080294
 C         1.387184        -0.033495         0.067367
 C         2.399744        -1.305513         0.245499
 C         3.263342        -0.137977        -0.063275
 C         4.624028         0.581207        -0.161765
 C         4.221220         2.069687        -0.093770
 O         2.996329         2.059754         0.780379
 C         2.576367         0.724009         0.956255
 O         2.289425         0.223007        -1.202495
 H        -0.617198        -0.215906         0.860314
 H        -0.123354         1.348905         0.217971
 H        -0.317758        -0.036771        -0.907704
 H         2.282227        -1.571415         1.256673
 H         2.432605        -2.138439        -0.405516
 H         4.888435         0.268962         0.906495
 H         5.265474         0.149767        -0.898704
 H         4.884156         2.765917         0.408752
 H         4.094967         2.500132        -1.079344
 H         2.582102         0.518740         2.056868
