19
Iteration:  2125
 C         0.005849         0.094617         0.112358
 C         1.483348        -0.012806         0.063292
 C         2.341342        -1.268457         0.310601
 C         3.268098        -0.106954        -0.092757
 C         4.578318         0.517866        -0.307326
 C         4.293829         2.083576         0.022727
 O         2.983312         2.091516         0.706146
 C         2.490881         0.827625         0.938142
 O         2.308261         0.228504        -1.141242
 H        -0.378248        -0.040785         1.145027
 H        -0.268340         1.168206        -0.076700
 H        -0.663796        -0.578609        -0.473591
 H         2.417251        -1.759789         1.354201
 H         2.202355        -2.006769        -0.538173
 H         5.352125         0.188059         0.385035
 H         4.838921         0.509197        -1.349586
 H         5.015360         2.397984         0.798699
 H         4.235436         2.805717        -0.773221
 H         2.568656         0.619615         1.954346
