19
Iteration:  1551charge 0 multiplicity 1
 C         0.050147         0.328643         0.008929
 C         1.467511        -0.029928         0.112207
 C         2.582445        -1.392942         0.250295
 C         3.281803        -0.105537        -0.085538
 C         4.554701         0.527529        -0.257504
 C         4.074928         1.980141        -0.058303
 O         3.006944         2.110783         0.845422
 C         2.506174         0.757990         0.941412
 O         2.226711         0.259331        -1.102642
 H        -0.487662         0.414834         0.982417
 H        -0.137335         1.364167        -0.368968
 H        -0.592003        -0.326028        -0.597677
 H         2.764847        -1.882471         1.258373
 H         2.468282        -2.009265        -0.594876
 H         5.206892         0.013413         0.553139
 H         5.243163         0.348460        -1.195860
 H         4.989003         2.575088         0.262436
 H         3.611405         2.268806        -1.087504
 H         2.504630         0.569675         2.006168
