19
Iteration:  3308charge 0 multiplicity 1
 C        -0.064988         0.179261        -0.008614
 C         1.449279        -0.067610         0.086872
 C         2.427392        -1.262650         0.348917
 C         3.284832        -0.089090        -0.094621
 C         4.651051         0.521945        -0.194050
 C         4.223927         2.040832        -0.074677
 O         3.040424         2.108292         0.728062
 C         2.558576         0.717470         0.975116
 O         2.191384         0.263628        -1.106129
 H        -0.677807         0.035539         0.847432
 H        -0.147758         1.248856        -0.318756
 H        -0.509794        -0.388084        -0.857296
 H         2.604421        -1.504830         1.364795
 H         2.365750        -2.178761        -0.312112
 H         5.208203         0.375799         0.735085
 H         5.208649         0.438054        -1.172925
 H         4.849816         2.753008         0.317904
 H         3.867722         2.309076        -1.104609
 H         2.684073         0.526044         2.117758
