19
Iteration:  1858charge 0 multiplicity 1
 C        -0.002281         0.113547         0.046047
 C         1.464953        -0.070416         0.116549
 C         2.342439        -1.256081         0.250005
 C         3.279932        -0.077918        -0.052488
 C         4.625768         0.535163        -0.440936
 C         4.290005         1.998000         0.064484
 O         3.002069         2.094747         0.716318
 C         2.454298         0.870294         1.027127
 O         2.299674         0.281838        -1.063278
 H        -0.343283        -0.224913         1.021226
 H        -0.423680         1.085930        -0.078923
 H        -0.495996        -0.528473        -0.781066
 H         2.426343        -1.769920         1.270806
 H         2.203162        -2.052907        -0.592201
 H         5.429652         0.059818         0.186516
 H         4.914188         0.487022        -1.485889
 H         4.993786         2.495775         0.687331
 H         4.148885         2.610305        -0.860403
 H         2.383276         0.514940         2.091577
