19
Iteration:  2478
 C        -0.023768         0.038910        -0.011734
 C         1.445675        -0.030502         0.165536
 C         2.403309        -1.305292         0.311390
 C         3.308320        -0.068432        -0.033969
 C         4.596699         0.495815        -0.348709
 C         4.357652         2.005451         0.099590
 O         2.968965         2.106695         0.574743
 C         2.585662         0.829182         0.922555
 O         2.121735         0.359725        -1.014853
 H        -0.459698         0.070091         1.002783
 H        -0.303845         1.036803        -0.470246
 H        -0.475954        -0.820489        -0.546635
 H         2.380059        -1.760999         1.305044
 H         2.313558        -1.939695        -0.501509
 H         5.248487         0.092768         0.438034
 H         4.986074         0.515530        -1.410133
 H         5.207431         2.308524         0.818870
 H         4.276452         2.748514        -0.756270
 H         2.810833         0.757660         1.939073
