19
Iteration:   871charge 0 multiplicity 1
 C         0.034063         0.309154        -0.051106
 C         1.473700         0.008338         0.138751
 C         2.324036        -1.356119         0.279133
 C         3.307471        -0.151007        -0.004684
 C         4.689489         0.551592        -0.286348
 C         4.142477         2.041518        -0.138141
 O         2.916598         2.033769         0.800738
 C         2.562531         0.708721         1.022861
 O         2.327192         0.306827        -1.078941
 H        -0.610866        -0.288772         0.625410
 H        -0.081242         1.395433        -0.149284
 H        -0.050724        -0.081734        -1.077566
 H         2.231362        -1.721188         1.311507
 H         2.141803        -2.132587        -0.382830
 H         5.420360         0.193889         0.494141
 H         5.234943         0.375337        -1.257219
 H         4.760535         2.781852         0.356258
 H         3.646493         2.356562        -1.033909
 H         2.526345         0.374721         2.080705
