19
Iteration:  4337charge 0 multiplicity 1
 C         0.005322         0.098255         0.123012
 C         1.490031        -0.011473         0.162887
 C         2.326988        -1.326314         0.234075
 C         3.305581        -0.108199         0.024634
 C         4.623184         0.522999        -0.179145
 C         4.268324         2.037867         0.058171
 O         2.897628         2.108698         0.389846
 C         2.547440         0.784663         0.917209
 O         2.324224         0.325441        -1.045126
 H        -0.631294        -0.195175         1.004205
 H        -0.417874         1.088445        -0.088087
 H        -0.523459        -0.542437        -0.632215
 H         2.249387        -1.872904         1.195586
 H         2.124765        -1.819606        -0.670840
 H         5.300991         0.239713         0.569853
 H         5.111252         0.391629        -1.099363
 H         4.860275         2.371009         0.921034
 H         4.478647         2.691531        -0.816808
 H         2.620074         0.779636         2.036732
