19
Iteration:  4125
 C         0.057493         0.287670        -0.055342
 C         1.474595        -0.097609         0.265059
 C         2.333973        -1.383310         0.247376
 C         3.323308        -0.071881        -0.046544
 C         4.670768         0.603210        -0.232323
 C         4.165909         2.031559        -0.086109
 O         2.867349         2.035538         0.587716
 C         2.619861         0.734448         1.106954
 O         2.258472         0.288001        -1.041141
 H        -0.736734        -0.134030         0.666613
 H        -0.035382         1.434391        -0.186556
 H        -0.092457        -0.198509        -1.063243
 H         2.527225        -1.744632         1.221711
 H         2.012745        -2.021207        -0.633222
 H         5.421209         0.281503         0.441266
 H         5.171219         0.319347        -1.168923
 H         4.759416         2.827533         0.523758
 H         3.972069         2.362221        -1.142786
 H         2.755990         0.494291         2.246728
