19
Iteration:  4356
 C         0.013160         0.020819        -0.010653
 C         1.464626         0.070996         0.115708
 C         2.279077        -1.253085         0.325452
 C         3.268944        -0.106758         0.013320
 C         4.663545         0.480065        -0.269496
 C         4.258198         2.024330        -0.014644
 O         2.887955         2.138955         0.618076
 C         2.566501         0.864133         1.054732
 O         2.343974         0.278500        -1.127256
 H        -0.354252        -0.181644         1.041897
 H        -0.477134         0.990105        -0.391812
 H        -0.357284        -0.924751        -0.575798
 H         2.286104        -1.675572         1.353809
 H         2.190794        -1.941987        -0.535474
 H         5.459577        -0.041025         0.380281
 H         4.939814         0.262080        -1.415507
 H         5.036134         2.490645         0.579651
 H         4.288937         2.583782        -0.946489
 H         2.629523         0.611256         2.116908
