19
Iteration:  4796
 C        -0.018811         0.167695         0.133360
 C         1.518483        -0.006117         0.090634
 C         2.348677        -1.232193         0.351776
 C         3.287517        -0.135762        -0.020582
 C         4.647690         0.516409        -0.077481
 C         4.223792         1.999687        -0.054186
 O         2.862463         2.045280         0.499064
 C         2.546901         0.735604         0.886130
 O         2.345971         0.336498        -1.158583
 H        -0.334664         0.077510         1.138030
 H        -0.324843         1.073933        -0.299666
 H        -0.461502        -0.582897        -0.454986
 H         2.302153        -1.586887         1.368500
 H         2.302682        -2.055743        -0.389407
 H         5.245455         0.224743         0.895199
 H         5.272489         0.243231        -0.953142
 H         4.881063         2.674134         0.590157
 H         4.158873         2.615333        -0.997147
 H         2.494459         0.713333         1.961515
