19
Iteration:  1932
 C        -0.038122         0.174149         0.155122
 C         1.452445         0.023496         0.100810
 C         2.396358        -1.367227         0.178014
 C         3.284523        -0.110229        -0.084401
 C         4.624744         0.550879        -0.307967
 C         4.244775         2.010775         0.148063
 O         2.955267         2.092783         0.523382
 C         2.584418         0.777370         1.003734
 O         2.233598         0.297339        -1.070221
 H        -0.332560         0.177040         1.174157
 H        -0.527142         1.037672        -0.255637
 H        -0.479463        -0.696145        -0.420818
 H         2.687330        -1.775796         1.117921
 H         2.347104        -2.195407        -0.552451
 H         5.450890         0.165774         0.327255
 H         4.856259         0.657771        -1.359904
 H         4.935049         2.383003         0.970911
 H         4.463103         2.702761        -0.597886
 H         2.507076         0.642071         2.052475
