19
Iteration:  4971
 C        -0.024738         0.236411         0.104236
 C         1.491668        -0.095685         0.067969
 C         2.302441        -1.345832         0.277296
 C         3.285158        -0.078011        -0.021154
 C         4.687241         0.617531        -0.109068
 C         4.160318         2.084079        -0.105742
 O         2.940701         2.073308         0.591715
 C         2.542116         0.740473         0.943816
 O         2.351959         0.186648        -1.086100
 H        -0.530059         0.211100         1.065638
 H         0.014960         1.298041        -0.261001
 H        -0.492517        -0.342316        -0.675955
 H         2.291901        -1.851999         1.271528
 H         2.232472        -1.889346        -0.619757
 H         5.199484         0.487421         0.890003
 H         5.378554         0.254594        -0.948303
 H         4.962204         2.701009         0.395168
 H         3.916741         2.372781        -1.075534
 H         2.536744         0.734927         2.010842
