19
Iteration:  2847charge 0 multiplicity 1
 C        -0.062647         0.028773        -0.040688
 C         1.435892         0.029951         0.099978
 C         2.309739        -1.231230         0.282500
 C         3.234128        -0.077107        -0.128752
 C         4.704734         0.558737        -0.132632
 C         4.212004         2.086838        -0.184566
 O         3.153045         2.040478         0.858732
 C         2.550317         0.760940         0.989891
 O         2.190515         0.316993        -1.112256
 H        -0.502585        -0.061254         0.998759
 H        -0.521311         0.966829        -0.477023
 H        -0.387470        -0.837190        -0.638043
 H         2.526194        -1.718237         1.243037
 H         2.013754        -2.069460        -0.386008
 H         5.323929         0.552024         0.746837
 H         5.356676         0.387395        -1.006110
 H         5.059298         2.739717         0.247108
 H         3.790658         2.206361        -1.183501
 H         2.758829         0.286740         1.920995
