19
Iteration:  1328charge 0 multiplicity 1
 C        -0.071355         0.131611         0.036751
 C         1.433436        -0.015664         0.020356
 C         2.451501        -1.322961         0.323078
 C         3.222337         0.002207        -0.015043
 C         4.639807         0.487788        -0.259820
 C         4.191698         2.024962        -0.132385
 O         3.096819         2.063842         0.865112
 C         2.445732         0.818498         0.971918
 O         2.343753         0.323790        -1.140374
 H        -0.588348        -0.087001         0.957734
 H        -0.464438         1.062314        -0.347255
 H        -0.498031        -0.562975        -0.691219
 H         2.407377        -1.950780         1.229221
 H         2.317471        -1.959150        -0.578330
 H         5.324856         0.097004         0.593072
 H         4.879131         0.193965        -1.306185
 H         4.980183         2.585092         0.352674
 H         3.858599         2.373310        -1.092747
 H         2.507420         0.585396         1.989595
