19
Iteration:   786
 C        -0.057236         0.044328         0.071827
 C         1.445642        -0.021295         0.024776
 C         2.348045        -1.283797         0.227901
 C         3.232306        -0.119328        -0.072563
 C         4.706682         0.458698        -0.143550
 C         4.322349         2.038557         0.012709
 O         3.061242         2.148107         0.757556
 C         2.500073         0.763743         0.942262
 O         2.198209         0.388174        -1.227452
 H        -0.363870         0.144077         1.111718
 H        -0.426387         0.968531        -0.355647
 H        -0.562613        -0.796057        -0.357410
 H         2.453286        -1.574392         1.278960
 H         2.142361        -2.083814        -0.449126
 H         5.226373         0.166263         0.801171
 H         5.316246         0.388230        -0.959615
 H         5.065674         2.591759         0.655251
 H         4.231934         2.644771        -0.914763
 H         2.315267         0.454039         1.973361
