19
Iteration:  3865charge 0 multiplicity 1
 C        -0.054796        -0.030280        -0.012218
 C         1.436647         0.024573         0.130366
 C         2.362119        -1.273904         0.232871
 C         3.261210        -0.081292        -0.078573
 C         4.592712         0.486983        -0.117560
 C         4.265153         1.997333        -0.091608
 O         3.125764         2.177472         0.748773
 C         2.482778         0.833613         0.963598
 O         2.235569         0.342476        -1.097900
 H        -0.535466        -0.114471         0.973859
 H        -0.346771         0.868792        -0.491917
 H        -0.305875        -0.845346        -0.627004
 H         2.556198        -1.755557         1.193144
 H         2.165744        -1.852277        -0.665973
 H         5.228045         0.075156         0.703482
 H         5.313762         0.194767        -1.022186
 H         4.995409         2.648489         0.276775
 H         3.967730         2.414699        -1.080729
 H         2.553962         0.621371         2.042217
