19
Iteration:  1051
 C         0.038511         0.306847         0.086705
 C         1.516599         0.040293         0.119189
 C         2.318756        -1.311887         0.241786
 C         3.324612        -0.169737        -0.053524
 C         4.645595         0.567469        -0.190865
 C         4.123088         2.015231        -0.111589
 O         2.944461         1.999569         0.658419
 C         2.557167         0.709154         0.973290
 O         2.321151         0.300209        -1.055929
 H        -0.609685        -0.110753         0.844134
 H        -0.181247         1.354288        -0.070463
 H        -0.298077        -0.237818        -0.831424
 H         2.245537        -1.717206         1.193591
 H         2.071793        -2.126479        -0.445640
 H         5.350568         0.387235         0.713773
 H         5.353600         0.375555        -1.078715
 H         4.684280         2.784145         0.439509
 H         3.887130         2.269551        -1.214012
 H         2.481184         0.384614         2.064730
