19
Iteration:  2636
 C         0.012350         0.164403        -0.035243
 C         1.443318        -0.116022         0.061505
 C         2.353942        -1.264905         0.343926
 C         3.252309        -0.071506        -0.101011
 C         4.622163         0.597325        -0.249644
 C         4.147741         2.048901        -0.106198
 O         3.081862         2.099013         0.863847
 C         2.568542         0.816936         1.012690
 O         2.205302         0.181551        -1.163711
 H        -0.450954         0.259488         1.003889
 H        -0.034095         1.159971        -0.484836
 H        -0.472097        -0.582428        -0.786324
 H         2.709128        -1.574456         1.367683
 H         2.375770        -2.151784        -0.334500
 H         5.281788         0.202957         0.558959
 H         5.168018         0.434243        -1.203380
 H         4.950836         2.638019         0.544167
 H         3.940894         2.520580        -1.032295
 H         2.650853         0.549883         2.088093
