19
Iteration:  3348charge 0 multiplicity 1
 C         0.038947        -0.011544        -0.015343
 C         1.465575         0.034186         0.121612
 C         2.238071        -1.180118         0.196741
 C         3.317399        -0.082408         0.093939
 C         4.674853         0.492124        -0.208560
 C         4.133267         1.918098        -0.147931
 O         3.070436         2.147868         0.722765
 C         2.476199         0.804797         1.017832
 O         2.339989         0.394371        -1.058595
 H        -0.443334        -0.234745         1.033368
 H        -0.495283         0.836354        -0.384911
 H        -0.135401        -0.923192        -0.596421
 H         2.076000        -1.820726         1.193682
 H         2.072825        -1.952472        -0.543566
 H         5.409240         0.053259         0.447922
 H         4.964918         0.285424        -1.189046
 H         5.073094         2.655395        -0.138718
 H         3.880931         2.127508        -1.151858
 H         2.428542         0.659193         2.045824
