19
Iteration:   669
 C        -0.076917         0.075984        -0.049999
 C         1.435590         0.059018         0.062630
 C         2.322167        -1.200791         0.317975
 C         3.311240        -0.130867        -0.036449
 C         4.588785         0.512589        -0.287385
 C         4.259796         2.006464         0.035464
 O         2.991088         2.061254         0.787585
 C         2.611231         0.748839         0.979360
 O         2.307384         0.306182        -1.176223
 H        -0.523457        -0.328068         0.898834
 H        -0.280269         1.193609         0.095214
 H        -0.485001        -0.322150        -1.007883
 H         2.342928        -1.631145         1.369607
 H         2.177122        -2.027298        -0.407483
 H         5.423473         0.238986         0.445312
 H         4.964983         0.545176        -1.337109
 H         5.048206         2.432464         0.648203
 H         4.217606         2.615279        -0.849135
 H         2.441048         0.598703         2.136197
