19
Iteration:  1216
 C        -0.057553         0.192725         0.125518
 C         1.468816        -0.010829         0.089855
 C         2.208554        -1.284221         0.340607
 C         3.258939        -0.086352        -0.101263
 C         4.634756         0.488267        -0.265185
 C         4.207793         2.074787         0.038980
 O         2.887464         2.081250         0.679223
 C         2.603997         0.740409         0.930128
 O         2.486603         0.279900        -1.210511
 H        -0.134131        -0.075858         1.179587
 H        -0.145585         1.228847        -0.166650
 H        -0.603897        -0.570612        -0.400586
 H         2.297551        -1.668987         1.386620
 H         2.053412        -2.084948        -0.363138
 H         5.320482         0.121232         0.539814
 H         5.245191         0.275817        -1.260289
 H         4.810688         2.592419         0.715981
 H         4.035976         2.551696        -0.969187
 H         2.755476         0.526792         1.960912
