19
Iteration:  4891
 C        -0.039545        -0.007725        -0.200416
 C         1.454719         0.046762         0.217952
 C         2.292252        -1.218507         0.389885
 C         3.235356        -0.090674         0.096191
 C         4.605425         0.493621        -0.332777
 C         4.243922         2.066488        -0.076344
 O         3.001050         2.122989         0.641660
 C         2.655412         0.871076         1.041186
 O         2.288982         0.227257        -1.007501
 H        -0.606803        -0.270910         0.795552
 H        -0.456757         0.948916        -0.592482
 H        -0.196644        -0.824337        -1.062322
 H         2.289964        -1.930880         1.230203
 H         2.076327        -1.834012        -0.566798
 H         5.498081         0.275046         0.241406
 H         4.745505         0.298607        -1.376545
 H         5.156647         2.474064         0.404467
 H         4.376374         2.584768        -0.981337
 H         2.629786         0.797030         2.178326
