19
Iteration:  3994
 C         0.039112         0.174839         0.003337
 C         1.472422        -0.013424         0.157698
 C         2.364196        -1.351540         0.218598
 C         3.307420        -0.098788         0.094921
 C         4.617264         0.503134        -0.273494
 C         4.252397         2.033163        -0.048599
 O         2.857823         2.125669         0.603301
 C         2.489021         0.750697         0.984055
 O         2.379657         0.320231        -1.040231
 H        -0.438994         0.061025         1.050087
 H        -0.166052         1.210469        -0.329623
 H        -0.377691        -0.579356        -0.677608
 H         2.350438        -2.069530         1.097676
 H         2.158285        -1.991989        -0.629736
 H         5.418983         0.180761         0.297029
 H         4.752641         0.401493        -1.368306
 H         4.950792         2.455338         0.752289
 H         3.988347         2.708662        -0.868234
 H         2.586310         0.564921         2.065357
