19
Iteration:   168
 C         0.001866         0.096527         0.070921
 C         1.452730         0.032460         0.169003
 C         2.324805        -1.260692         0.226778
 C         3.236505        -0.119326        -0.125213
 C         4.656947         0.549998        -0.092078
 C         4.262797         1.994626        -0.110926
 O         2.984540         2.073527         0.726004
 C         2.551191         0.781974         0.955077
 O         2.262200         0.349934        -1.140816
 H        -0.568751        -0.569333         0.784035
 H        -0.348865         1.163305         0.022326
 H        -0.094106        -0.458788        -0.917722
 H         2.358788        -1.952778         1.088687
 H         2.037414        -1.958205        -0.623957
 H         5.003704         0.299136         0.962705
 H         5.411709         0.411945        -0.850299
 H         5.159171         2.594860         0.171515
 H         4.199008         2.333916        -1.128771
 H         2.573305         0.510587         2.041173
