19
Iteration:  4331
 C        -0.029276         0.128601         0.119256
 C         1.462487        -0.031585         0.158101
 C         2.376280        -1.341565         0.295939
 C         3.311708        -0.133733        -0.017585
 C         4.662639         0.557395        -0.153811
 C         4.285499         2.028675         0.068128
 O         2.868344         2.111108         0.375303
 C         2.510535         0.791196         0.904255
 O         2.290953         0.344408        -1.060031
 H        -0.380811        -0.242618         1.081610
 H        -0.260320         1.204539         0.029276
 H        -0.507489        -0.464221        -0.628910
 H         2.320401        -1.988705         1.176483
 H         2.207277        -1.865649        -0.735858
 H         5.333167         0.018353         0.652850
 H         5.177426         0.425721        -1.181693
 H         4.977472         2.412023         0.877389
 H         4.642029         2.647120        -0.764633
 H         2.501633         0.631836         1.982541
