19
Iteration:  3822
 C        -0.111490         0.232019        -0.022153
 C         1.374666        -0.006039         0.075534
 C         2.370983        -1.318689         0.421052
 C         3.364867        -0.147730        -0.052565
 C         4.675524         0.609548        -0.346751
 C         4.230329         2.104021         0.079131
 O         2.984629         2.025322         0.721712
 C         2.551367         0.744359         0.879372
 O         2.301915         0.189132        -1.110661
 H        -0.490925         0.182407         1.014013
 H        -0.325394         1.221481        -0.344113
 H        -0.605679        -0.501997        -0.593374
 H         2.447189        -1.532971         1.439978
 H         2.204050        -2.189694        -0.195635
 H         5.642092         0.373462         0.159946
 H         4.914089         0.656062        -1.507101
 H         4.922333         2.481156         0.755248
 H         4.267724         2.716346        -0.868952
 H         2.488614         0.594888         1.993412
