19
Iteration:  3882
 C        -0.151363        -0.050653        -0.023836
 C         1.461673         0.035274         0.037656
 C         2.282460        -1.254083         0.230709
 C         3.242607        -0.049428         0.078860
 C         4.776821         0.497525        -0.142854
 C         4.281450         1.970247        -0.203307
 O         2.983399         2.055809         0.708051
 C         2.631952         0.811160         1.031388
 O         2.267000         0.491607        -1.059025
 H        -0.409531        -0.328632         1.042283
 H        -0.741212         0.848039        -0.408286
 H        -0.574601        -0.907465        -0.694814
 H         2.203929        -1.771459         1.283586
 H         2.426276        -2.036863        -0.538087
 H         5.363230         0.359212         0.778732
 H         5.211103         0.140476        -0.984881
 H         5.184384         2.656350         0.194624
 H         4.021103         2.329220        -1.205237
 H         2.526734         0.494786         2.080660
