19
Iteration:   446charge 0 multiplicity 1
 C        -0.062052         0.063171         0.034289
 C         1.447323         0.011642        -0.028594
 C         2.411428        -1.257617         0.215187
 C         3.181639        -0.025814        -0.053597
 C         4.625871         0.496618        -0.158796
 C         4.294408         1.994842        -0.052065
 O         3.050089         2.038204         0.831981
 C         2.488175         0.781028         1.014011
 O         2.273046         0.415246        -1.184998
 H        -0.446735         0.033707         1.080108
 H        -0.476172         1.006477        -0.316268
 H        -0.477828        -0.883133        -0.400494
 H         2.424591        -1.632101         1.213051
 H         2.437729        -2.143914        -0.493202
 H         5.205074         0.039217         0.655445
 H         5.254130         0.265653        -1.038499
 H         5.118825         2.497419         0.344351
 H         4.154181         2.463074        -1.064572
 H         2.517125         0.391614         2.056053
