19
Iteration:  1244charge 0 multiplicity 1
 C        -0.026937         0.245697         0.074800
 C         1.477767        -0.001427         0.018658
 C         2.441518        -1.362653         0.276281
 C         3.277673        -0.101327         0.042068
 C         4.665639         0.518149        -0.235656
 C         4.238402         2.055866        -0.014554
 O         3.000202         2.081237         0.726785
 C         2.445293         0.808148         0.913507
 O         2.228480         0.204254        -1.149000
 H        -0.254371        -0.268898         1.024308
 H        -0.091512         1.347636         0.144811
 H        -0.581347        -0.214100        -0.796914
 H         2.702716        -1.855580         1.234648
 H         2.233971        -1.969535        -0.668598
 H         5.356842         0.109574         0.506503
 H         5.092430         0.255060        -1.128206
 H         4.934779         2.836079         0.523202
 H         4.041147         2.462336        -0.994104
 H         2.195906         0.826785         2.041488
