19
Iteration:   837charge 0 multiplicity 1
 C        -0.028986         0.193539        -0.108249
 C         1.491121         0.001717         0.059794
 C         2.386357        -1.392489         0.240981
 C         3.280440        -0.076058         0.103360
 C         4.642452         0.453900        -0.334764
 C         4.219762         2.005034        -0.133360
 O         3.016436         2.092983         0.874567
 C         2.459810         0.812581         1.043144
 O         2.317135         0.358360        -1.031389
 H        -0.667028        -0.077387         0.768914
 H        -0.386814         1.209358        -0.349496
 H        -0.309274        -0.523291        -0.922381
 H         2.330758        -1.840296         1.252324
 H         2.342636        -2.039809        -0.599496
 H         5.497449         0.139618         0.275311
 H         4.849909         0.420876        -1.460126
 H         4.968235         2.744799         0.127078
 H         3.777562         2.308426        -1.077836
 H         2.377243         0.511415         2.093376
