19
Iteration:  3861charge 0 multiplicity 1
 C        -0.022123        -0.021295        -0.012564
 C         1.482990         0.018872         0.168039
 C         2.359188        -1.244896         0.228761
 C         3.220983        -0.080372        -0.106198
 C         4.578805         0.495493        -0.107192
 C         4.217737         1.979609        -0.067531
 O         3.143023         2.186336         0.759875
 C         2.476848         0.843309         0.912996
 O         2.231259         0.305026        -1.102723
 H        -0.517796        -0.075583         1.000097
 H        -0.254686         0.934609        -0.552771
 H        -0.415634        -0.847880        -0.688175
 H         2.617192        -1.777028         1.255149
 H         2.270603        -1.907590        -0.624338
 H         5.230432         0.111700         0.663462
 H         5.119631         0.289200        -1.000003
 H         5.193433         2.557655         0.317172
 H         3.987041         2.474861        -1.001633
 H         2.531119         0.547938         1.958931
