19
Iteration:  3449charge 0 multiplicity 1
 C         0.005974         0.239610         0.069275
 C         1.465548        -0.106832         0.147095
 C         2.276070        -1.348466         0.346957
 C         3.331375        -0.104666        -0.061390
 C         4.751269         0.485286        -0.336984
 C         4.268186         2.108048         0.056344
 O         2.774656         2.063633         0.523642
 C         2.542584         0.751498         1.003383
 O         2.393873         0.325761        -1.082029
 H        -0.389190         0.037533         1.023675
 H        -0.101915         1.357326        -0.095906
 H        -0.613634        -0.328512        -0.662335
 H         2.111079        -1.591893         1.430410
 H         2.102520        -2.349435        -0.247974
 H         5.463483         0.033432         0.184023
 H         4.841568         0.365457        -1.424162
 H         4.905655         2.549260         0.852543
 H         4.374583         2.776880        -0.828509
 H         2.441631         0.674124         2.034498
