19
Iteration:  1461
 C        -0.109925         0.049392        -0.029016
 C         1.405857         0.012607         0.110686
 C         2.414878        -1.327046         0.273974
 C         3.273454        -0.047864        -0.083922
 C         4.669543         0.544500        -0.262570
 C         4.393690         2.039639         0.017861
 O         3.032352         2.104896         0.722414
 C         2.547775         0.827415         0.997038
 O         2.135892         0.311585        -1.103756
 H        -0.365339        -0.510595         0.881156
 H        -0.511909         1.067238         0.031907
 H        -0.441019        -0.419526        -0.960538
 H         2.688031        -1.557396         1.298132
 H         2.193896        -2.262338        -0.398645
 H         5.300750         0.003301         0.591344
 H         5.022619         0.395209        -1.302374
 H         5.130452         2.571355         0.638279
 H         4.153063         2.426797        -0.968971
 H         2.514730         0.496426         2.036402
