19
Iteration:  1222
 C        -0.052180         0.193672         0.148012
 C         1.427562        -0.010014         0.071344
 C         2.266340        -1.275567         0.322159
 C         3.260375        -0.105618        -0.062309
 C         4.632045         0.546587        -0.239743
 C         4.194166         2.012847        -0.000471
 O         2.909436         2.120926         0.699375
 C         2.574166         0.715756         0.911314
 O         2.481153         0.246875        -1.223686
 H        -0.282893        -0.004253         1.227051
 H        -0.196702         1.284091        -0.051068
 H        -0.668623        -0.457449        -0.545773
 H         2.111824        -1.622685         1.377280
 H         2.365282        -2.047012        -0.509704
 H         5.349813         0.170882         0.478438
 H         5.015297         0.285119        -1.154056
 H         4.969673         2.550580         0.678495
 H         4.165938         2.592484        -0.903907
 H         2.815307         0.481416         2.014866
