19
Iteration:  3946
 C        -0.065637         0.279995        -0.052808
 C         1.391348        -0.097703         0.072886
 C         2.407519        -1.332743         0.460033
 C         3.334025        -0.098545        -0.124286
 C         4.663336         0.619210        -0.254183
 C         4.191700         2.140605        -0.004329
 O         3.039084         2.025356         0.781535
 C         2.562244         0.753726         0.890505
 O         2.232942         0.142108        -1.148121
 H        -0.752927        -0.129622         0.676118
 H        -0.064112         1.402083        -0.012644
 H        -0.387894        -0.005305        -1.106012
 H         2.484880        -1.672158         1.477663
 H         2.532710        -2.264375        -0.108938
 H         5.345744         0.263764         0.582035
 H         5.044004         0.513140        -1.218726
 H         4.859560         2.842015         0.622895
 H         3.827924         2.624461        -0.891924
 H         2.467568         0.612300         2.023772
