19
Iteration:  2620
 C        -0.002509         0.222456        -0.006338
 C         1.492447         0.044828         0.108152
 C         2.388760        -1.343976         0.370238
 C         3.313519        -0.100370        -0.011379
 C         4.635361         0.567594        -0.294873
 C         4.148613         2.096614        -0.107869
 O         2.970669         2.061405         0.833953
 C         2.544158         0.704015         0.918623
 O         2.321419         0.216162        -1.127072
 H        -0.426455         0.125722         0.985162
 H        -0.286539         1.230445        -0.372908
 H        -0.398783        -0.508812        -0.644500
 H         2.139237        -1.794929         1.301974
 H         2.176307        -1.919409        -0.506661
 H         5.322017         0.431529         0.540760
 H         4.995689         0.310793        -1.289258
 H         4.974238         2.744976         0.156097
 H         3.627757         2.394924        -1.096908
 H         2.488779         0.297797         1.938495
