19
Iteration:  2041charge 0 multiplicity 1
 C        -0.039527         0.176106         0.007691
 C         1.522174         0.073221         0.165406
 C         2.380330        -1.262530         0.207287
 C         3.354737        -0.124357         0.086447
 C         4.609439         0.529126        -0.323252
 C         4.063981         2.005585        -0.194150
 O         3.001876         2.009737         0.767620
 C         2.507814         0.718292         1.091674
 O         2.365281         0.357710        -1.073352
 H        -0.462508        -0.214940         0.895906
 H        -0.390562         1.153975        -0.207515
 H        -0.314589        -0.461066        -0.897003
 H         2.263644        -1.654938         1.143440
 H         2.259678        -2.029831        -0.607327
 H         5.566877         0.436822         0.187423
 H         5.002339         0.182603        -1.284244
 H         4.999198         2.718740         0.073678
 H         3.567759         2.297886        -1.099364
 H         2.375413         0.359389         2.238345
