19
Iteration:   308charge 0 multiplicity 1
 C        -0.073555        -0.023526         0.057515
 C         1.455460         0.073950         0.067227
 C         2.358253        -1.193566         0.101269
 C         3.273558        -0.064402         0.054355
 C         4.644446         0.412594        -0.142960
 C         4.248392         1.984357        -0.035976
 O         3.045353         2.079841         0.675553
 C         2.503467         0.765895         0.966665
 O         2.304018         0.469444        -1.070698
 H        -0.434313        -0.629062         0.918466
 H        -0.506867         0.969703         0.054267
 H        -0.292400        -0.704856        -0.763096
 H         2.367562        -1.646430         1.115903
 H         2.296465        -2.037795        -0.662050
 H         5.278830        -0.152461         0.639823
 H         4.946548         0.115525        -1.130968
 H         4.968889         2.825255         0.318099
 H         3.962058         2.401632        -1.032274
 H         2.430877         0.668985         2.082776
