19
Iteration:   372
 C        -0.014395         0.359933        -0.001186
 C         1.478569        -0.006198         0.053026
 C         2.441155        -1.356068         0.298324
 C         3.311302        -0.085319        -0.042137
 C         4.653779         0.477950        -0.392308
 C         4.204810         2.086867         0.034034
 O         2.840845         2.043108         0.865360
 C         2.486463         0.701089         1.002103
 O         2.374433         0.237074        -1.152590
 H        -0.570396         0.016622         0.921789
 H        -0.232386         1.435164         0.105693
 H        -0.473106        -0.067976        -0.942465
 H         2.524826        -1.734611         1.324268
 H         2.303620        -2.176821        -0.494210
 H         5.575500         0.098564         0.211383
 H         5.011283         0.216419        -1.398169
 H         4.907341         2.887831         0.427520
 H         3.956080         2.380593        -1.024489
 H         2.336185         0.369541         2.081771
