19
Iteration:  3454
 C         0.023011         0.213697         0.078773
 C         1.441368        -0.053358         0.126284
 C         2.298495        -1.361609         0.341692
 C         3.339052        -0.149956        -0.008842
 C         4.734141         0.470969        -0.335299
 C         4.247350         2.080894         0.045433
 O         2.801631         2.081112         0.520074
 C         2.566572         0.767380         0.965333
 O         2.352083         0.346921        -1.094166
 H        -0.554674         0.065090         1.070173
 H        -0.149645         1.235911        -0.201089
 H        -0.555988        -0.352360        -0.641641
 H         2.186042        -1.627792         1.405994
 H         2.185187        -2.160613        -0.317071
 H         5.677514         0.103095         0.368657
 H         4.904796         0.384343        -1.431777
 H         4.736712         2.375790         0.988830
 H         4.264943         2.817577        -0.758192
 H         2.569004         0.742605         2.166411
