19
Iteration:   672charge 0 multiplicity 1
 C        -0.054845         0.084961        -0.058824
 C         1.434384         0.037014         0.078792
 C         2.337954        -1.216399         0.324168
 C         3.275031        -0.114766        -0.012782
 C         4.590633         0.516271        -0.289561
 C         4.302913         2.020331         0.037783
 O         2.977415         2.042082         0.795769
 C         2.602530         0.768031         0.986357
 O         2.292988         0.291655        -1.197819
 H        -0.540204        -0.254727         0.857012
 H        -0.155859         1.147712         0.182314
 H        -0.506336        -0.252610        -1.018210
 H         2.319183        -1.523655         1.329234
 H         2.213970        -2.033187        -0.428620
 H         5.426234         0.238806         0.315358
 H         4.954216         0.579480        -1.395099
 H         5.084357         2.518625         0.649130
 H         4.234788         2.604106        -0.882072
 H         2.304439         0.537476         2.067286
