19
Iteration:   200charge 0 multiplicity 1
 C         0.001844         0.266105         0.137150
 C         1.461332        -0.006419        -0.009838
 C         2.374746        -1.297879         0.222387
 C         3.305201        -0.220085         0.011509
 C         4.699599         0.492486        -0.215145
 C         4.145104         2.042774        -0.026542
 O         2.872314         2.046336         0.614572
 C         2.537551         0.708848         0.982191
 O         2.390784         0.367021        -1.073955
 H        -0.362186        -0.076256         1.117603
 H        -0.407349         1.244998        -0.167771
 H        -0.644898        -0.362075        -0.525404
 H         2.270169        -1.737443         1.219011
 H         2.312562        -1.942872        -0.707573
 H         5.392201         0.203051         0.624205
 H         5.154512         0.501298        -1.158573
 H         4.927113         2.526872         0.671384
 H         4.010577         2.479060        -1.013594
 H         2.359815         0.767726         2.100744
