19
Iteration:   267
 C        -0.089927         0.105539        -0.118693
 C         1.414598         0.022086         0.142756
 C         2.351830        -1.213445         0.388638
 C         3.268776        -0.088322        -0.111785
 C         4.621512         0.483806        -0.351271
 C         4.268343         2.137848         0.069716
 O         3.047883         2.044651         0.819157
 C         2.596227         0.753118         1.003670
 O         2.271009         0.273220        -1.144899
 H        -0.656174        -0.149276         0.791988
 H        -0.292679         1.063955        -0.678118
 H        -0.417886        -0.791109        -0.684677
 H         2.479599        -1.863168         1.293385
 H         2.326225        -1.975823        -0.424325
 H         5.413556         0.075879         0.292169
 H         4.707452         0.551965        -1.410552
 H         5.062716         2.727068         0.655370
 H         4.143366         2.553224        -0.926319
 H         2.480997         0.367745         2.067380
