19
Iteration:  1413
 C         0.025841         0.143897         0.094085
 C         1.446170         0.008979         0.007578
 C         2.402602        -1.264898         0.310498
 C         3.288436        -0.126123        -0.021896
 C         4.594045         0.525780        -0.290396
 C         4.368630         1.997392         0.015118
 O         2.861094         2.086748         0.670324
 C         2.453248         0.780429         0.968921
 O         2.308210         0.307449        -1.095752
 H        -0.320546        -0.204064         1.081923
 H        -0.171904         1.247172         0.122018
 H        -0.477767        -0.320572        -0.776299
 H         2.446588        -1.781699         1.329276
 H         2.299263        -1.903293        -0.586465
 H         5.457478         0.020941         0.124848
 H         4.694543         0.438538        -1.404724
 H         5.148181         2.374597         0.668302
 H         4.333051         2.775129        -0.774643
 H         2.453826         0.312914         2.048993
