19
Iteration:  3093
 C         0.001531         0.308011         0.049809
 C         1.483379         0.029608         0.072517
 C         2.398997        -1.338957         0.319577
 C         3.306717        -0.193775         0.045467
 C         4.640265         0.572787        -0.227782
 C         4.091611         2.039720        -0.189879
 O         2.941206         2.061598         0.821384
 C         2.552946         0.705530         0.956822
 O         2.335884         0.248576        -1.165016
 H        -0.448791        -0.028852         0.949828
 H        -0.017668         1.442040         0.089311
 H        -0.596792        -0.042190        -0.857451
 H         2.468907        -1.782143         1.353447
 H         2.367101        -2.143638        -0.467113
 H         5.382050         0.522891         0.534105
 H         4.961757         0.349231        -1.274200
 H         4.917523         2.755103         0.068269
 H         3.790490         2.219388        -1.229566
 H         2.560776         0.316750         2.051908
