19
Iteration:   992charge 0 multiplicity 1
 C        -0.085669         0.101365        -0.090142
 C         1.464910         0.024483         0.062812
 C         2.495293        -1.244482         0.367098
 C         3.227632        -0.010817         0.019074
 C         4.621020         0.443222        -0.300028
 C         4.344553         1.977679        -0.037129
 O         3.021162         2.098281         0.832110
 C         2.519691         0.806221         0.967215
 O         2.144900         0.296809        -1.159868
 H        -0.540927         0.257394         0.930446
 H        -0.314810         0.987362        -0.737519
 H        -0.529196        -0.769409        -0.583414
 H         2.653902        -1.630999         1.467434
 H         2.342368        -1.953413        -0.455421
 H         5.476487         0.173940         0.467007
 H         4.742720         0.087555        -1.303451
 H         4.998901         2.499435         0.638397
 H         4.290874         2.466588        -0.953707
 H         2.693043         0.443130         1.945220
