19
Iteration:  4612
 C        -0.119830         0.085710         0.047367
 C         1.464631        -0.042876         0.083149
 C         2.404220        -1.254852         0.406639
 C         3.270955        -0.051847        -0.033900
 C         4.630588         0.569488        -0.280780
 C         4.383735         2.083724         0.107825
 O         2.988839         2.143041         0.621707
 C         2.446064         0.872203         0.847910
 O         2.303878         0.060610        -1.165264
 H        -0.530088         0.178557         1.109786
 H        -0.458205         1.119175        -0.370360
 H        -0.812360        -0.662912        -0.429817
 H         2.456178        -1.651020         1.401831
 H         2.242715        -1.996024        -0.474184
 H         5.315595         0.133248         0.425106
 H         4.878589         0.665085        -1.287484
 H         5.086641         2.185484         0.888974
 H         4.598789         2.855048        -0.628866
 H         2.300877         0.820927         1.949634
