19
Iteration:   443
 C        -0.087160         0.074069         0.040405
 C         1.441569        -0.003234        -0.019706
 C         2.416404        -1.283488         0.228486
 C         3.222925        -0.029819        -0.058669
 C         4.610685         0.512881        -0.179717
 C         4.284487         1.963717        -0.044289
 O         3.045930         2.055298         0.824866
 C         2.505966         0.790009         1.027147
 O         2.282515         0.419748        -1.183840
 H        -0.523829         0.085576         1.024997
 H        -0.450009         0.998862        -0.424295
 H        -0.443453        -0.812509        -0.481828
 H         2.452327        -1.701483         1.242553
 H         2.340861        -2.098850        -0.509066
 H         5.125305         0.060244         0.612705
 H         5.285859         0.299595        -1.032911
 H         5.148106         2.538109         0.395595
 H         4.044761         2.459761        -0.997926
 H         2.550381         0.339381         2.024004
