19
Iteration:   770charge 0 multiplicity 1
 C        -0.079704         0.086080         0.125351
 C         1.425673         0.007780         0.040725
 C         2.371270        -1.238823         0.185127
 C         3.313175        -0.011467        -0.057835
 C         4.648155         0.529670        -0.149422
 C         4.299749         1.914535         0.106857
 O         2.994932         2.088001         0.682133
 C         2.463124         0.834422         0.858871
 O         2.294135         0.295364        -1.127292
 H        -0.396249         0.109651         1.196289
 H        -0.354259         1.128931        -0.228159
 H        -0.565082        -0.792329        -0.426422
 H         2.407674        -1.891860         1.074631
 H         2.459611        -1.691940        -0.848576
 H         5.297333        -0.022642         0.515954
 H         5.033126         0.192301        -1.260642
 H         4.996258         2.486480         0.703293
 H         4.196759         2.376348        -0.885053
 H         2.525288         0.560505         1.998066
