19
Iteration:  1467charge 0 multiplicity 1
 C        -0.074701         0.046014         0.012676
 C         1.426515        -0.011098         0.060472
 C         2.419519        -1.349576         0.273585
 C         3.241460        -0.054409        -0.059535
 C         4.681243         0.492645        -0.260085
 C         4.332198         2.000631         0.010121
 O         3.061462         2.161443         0.728849
 C         2.497078         0.835774         1.006543
 O         2.149223         0.351587        -1.123510
 H        -0.362694        -0.552040         0.885489
 H        -0.360040         1.101710        -0.018462
 H        -0.338420        -0.464285        -0.932467
 H         2.589643        -1.677807         1.329220
 H         2.420690        -2.168432        -0.410238
 H         5.263572         0.014085         0.459459
 H         5.009868         0.430428        -1.285603
 H         5.140422         2.474825         0.581931
 H         4.000809         2.524495        -0.909665
 H         2.505225         0.647247         2.123389
