19
Iteration:  1614charge 0 multiplicity 1
 C        -0.033734         0.158443         0.027416
 C         1.463653         0.017691         0.138839
 C         2.395197        -1.276652         0.261791
 C         3.283920        -0.083552        -0.050072
 C         4.631584         0.447127        -0.329447
 C         4.264347         2.015217        -0.012192
 O         2.930168         2.079289         0.737815
 C         2.591760         0.781834         1.007836
 O         2.218318         0.345423        -1.094975
 H        -0.487647        -0.492567         0.806850
 H        -0.418366         1.202339        -0.084423
 H        -0.108999        -0.509154        -0.820904
 H         2.399783        -1.815477         1.280386
 H         2.339017        -1.995856        -0.562296
 H         5.429139         0.283667         0.470891
 H         5.187188         0.336914        -1.340314
 H         5.008197         2.703732         0.341063
 H         4.019406         2.397289        -0.979408
 H         2.613846         0.428114         2.111231
