19
Iteration:   625charge 0 multiplicity 1
 C        -0.070469         0.066773         0.020286
 C         1.464042        -0.025647         0.040173
 C         2.430751        -1.255821         0.088545
 C         3.278538        -0.072043         0.063047
 C         4.646835         0.454998        -0.117078
 C         4.172515         1.929232        -0.076577
 O         3.083600         2.097370         0.714052
 C         2.546192         0.812918         1.011082
 O         2.194810         0.452688        -1.077326
 H        -0.552954         0.110488         1.020835
 H        -0.467596         1.012857        -0.422060
 H        -0.458142        -0.763729        -0.586959
 H         2.444438        -1.766665         1.084948
 H         2.347430        -1.804022        -0.832263
 H         5.252180         0.272721         0.865825
 H         5.274547         0.160030        -0.944029
 H         5.004925         2.460906         0.345060
 H         4.046151         2.314686        -1.067050
 H         2.557356         0.335865         2.030939
