19
Iteration:  4051
 C        -0.009268        -0.047557         0.053172
 C         1.426771         0.079619         0.056490
 C         2.314295        -1.242330         0.273570
 C         3.245609        -0.069271        -0.181254
 C         4.627090         0.496571        -0.178782
 C         4.257622         2.038894        -0.016917
 O         3.136154         2.165501         0.858342
 C         2.482611         0.895228         0.970497
 O         2.229685         0.195783        -1.225306
 H        -0.259787        -0.172611         1.075297
 H        -0.531050         0.839511        -0.374599
 H        -0.321023        -0.927017        -0.498673
 H         2.341373        -1.508223         1.299241
 H         2.082772        -2.030197        -0.535574
 H         5.071843         0.113162         0.700394
 H         5.532476         0.408324        -0.881540
 H         5.145594         2.550489         0.388810
 H         4.071014         2.605408        -0.980412
 H         2.401058         0.582043         1.988862
