19
Iteration:    50
 C        -0.025373         0.270743         0.185834
 C         1.462380         0.076004         0.044820
 C         2.505135        -1.323667         0.173881
 C         3.279482        -0.084438        -0.033335
 C         4.715782         0.479085        -0.081407
 C         4.182334         1.952889        -0.026213
 O         2.907204         2.077590         0.677182
 C         2.493581         0.754139         0.996812
 O         2.264884         0.257969        -1.279262
 H        -0.236137         0.240503         1.296537
 H        -0.457586         1.230447        -0.223225
 H        -0.638459        -0.573078        -0.253345
 H         2.636404        -1.757091         1.205533
 H         2.318450        -2.138731        -0.579305
 H         5.402438         0.172060         0.835309
 H         5.189329         0.415913        -1.124006
 H         4.901363         2.735536         0.351817
 H         3.910436         2.319072        -1.077031
 H         2.382937         0.539208         2.102028
