19
Iteration:  2434charge 0 multiplicity 1
 C        -0.016057         0.168529         0.207495
 C         1.468360        -0.027505         0.019400
 C         2.339220        -1.291778         0.313389
 C         3.289627        -0.087067        -0.130873
 C         4.629022         0.517665        -0.273857
 C         4.283479         2.104304         0.069312
 O         2.933639         2.142701         0.673489
 C         2.516452         0.738611         0.863988
 O         2.297937         0.195723        -1.159698
 H        -0.165066         0.184618         1.285134
 H        -0.233217         1.173684        -0.230097
 H        -0.722787        -0.634881        -0.176989
 H         2.472550        -1.689835         1.322852
 H         2.198479        -2.029887        -0.382964
 H         5.364428         0.203302         0.461226
 H         4.853392         0.351002        -1.358976
 H         4.840722         2.493928         0.945659
 H         4.470862         2.748726        -0.785102
 H         2.615515         0.361461         1.896678
