19
Iteration:  4196charge 0 multiplicity 1
 C        -0.104009         0.047586         0.024394
 C         1.397540         0.052522         0.073864
 C         2.259560        -1.325653         0.305929
 C         3.293925        -0.111604        -0.045343
 C         4.626696         0.553695        -0.167183
 C         4.279877         2.079690        -0.135628
 O         3.098305         2.125054         0.764529
 C         2.569585         0.751749         0.957116
 O         2.302031         0.278301        -1.159466
 H        -0.499442         0.002120         1.038696
 H        -0.523920         0.893453        -0.462118
 H        -0.408681        -0.844450        -0.518990
 H         2.474421        -1.570904         1.405451
 H         2.254244        -2.079759        -0.436183
 H         5.316519         0.351308         0.719178
 H         5.328026         0.444637        -0.957058
 H         5.014998         2.736805         0.413775
 H         3.739750         2.563959        -1.040353
 H         2.547632         0.525289         2.029996
