19
Iteration:  4315charge 0 multiplicity 1
 C         0.002762         0.208556         0.179564
 C         1.467405        -0.057392         0.039578
 C         2.484523        -1.345543         0.311251
 C         3.262177        -0.048085        -0.083961
 C         4.721727         0.481609        -0.139100
 C         4.353044         2.007274         0.155446
 O         2.832602         2.106350         0.457329
 C         2.470841         0.824875         0.863579
 O         2.192289         0.239013        -1.170847
 H        -0.545228        -0.217426         1.089756
 H        -0.254349         1.287046         0.206063
 H        -0.730671        -0.150239        -0.606578
 H         2.767606        -1.516328         1.389720
 H         2.406912        -2.165475        -0.345659
 H         5.345434         0.136905         0.616142
 H         5.246166         0.381107        -1.049410
 H         4.802646         2.520016         1.007309
 H         4.333239         2.604073        -0.770247
 H         2.596583         0.785559         1.980057
