19
Iteration:  1476charge 0 multiplicity 1
 C         0.018723         0.013777         0.064245
 C         1.475163        -0.051280         0.032693
 C         2.423667        -1.275928         0.291399
 C         3.215320        -0.068560        -0.008928
 C         4.579932         0.444676        -0.266112
 C         4.227147         1.952867        -0.018743
 O         3.062688         2.182681         0.770905
 C         2.480539         0.830453         0.946785
 O         2.224688         0.399296        -1.134813
 H        -0.654208        -0.382173         0.863289
 H        -0.338597         1.086251         0.013662
 H        -0.406538        -0.492412        -0.828498
 H         2.347095        -1.835987         1.244682
 H         2.506899        -1.873147        -0.553277
 H         5.368191         0.098761         0.361725
 H         5.090359         0.252567        -1.266168
 H         5.114357         2.483119         0.529241
 H         4.329607         2.595932        -1.022488
 H         2.519798         0.661040         2.021796
