19
Iteration:  3384
 C        -0.093305         0.105378        -0.049587
 C         1.463314        -0.034814         0.161775
 C         2.363699        -1.291456         0.351915
 C         3.295775        -0.040663        -0.100965
 C         4.575812         0.536504        -0.156720
 C         4.215259         2.034069        -0.110318
 O         3.116287         2.086182         0.734604
 C         2.519998         0.792228         0.928219
 O         2.273167         0.276604        -1.102874
 H        -0.586518        -0.187478         0.833202
 H        -0.374222         1.180157        -0.260445
 H        -0.491371        -0.532251        -0.871799
 H         2.448705        -1.483291         1.420627
 H         2.330863        -2.190228        -0.396874
 H         5.182016         0.297768         0.670384
 H         5.180780         0.437693        -1.097698
 H         4.994366         2.465888         0.386565
 H         3.953335         2.472529        -1.083395
 H         2.571240         0.570986         2.035448
