19
Iteration:  4768charge 0 multiplicity 1
 C        -0.048468         0.142090        -0.066899
 C         1.495889        -0.064301         0.116232
 C         2.479841        -1.346691         0.338406
 C         3.232784        -0.111453         0.049423
 C         4.613520         0.460241        -0.199555
 C         4.224146         2.034496        -0.104436
 O         2.976712         2.227199         0.692421
 C         2.542971         0.851783         0.955358
 O         2.243211         0.256482        -1.071422
 H        -0.657384         0.142325         0.898374
 H        -0.267934         1.096919        -0.707678
 H        -0.530941        -0.685492        -0.726906
 H         2.413504        -1.810621         1.391854
 H         2.537140        -1.991021        -0.522178
 H         5.213566         0.067342         0.573562
 H         5.197686         0.102727        -1.053411
 H         5.040656         2.649232         0.282932
 H         4.060394         2.359879        -1.171837
 H         2.508750         0.791098         2.076500
