19
Iteration:  3935charge 0 multiplicity 1
 C        -0.068156         0.231586        -0.076606
 C         1.513134        -0.072705         0.092981
 C         2.432819        -1.305633         0.354419
 C         3.274633        -0.081372        -0.008401
 C         4.609183         0.577632        -0.230624
 C         4.179087         2.080791        -0.047991
 O         3.015362         2.124535         0.805105
 C         2.575661         0.766336         0.953463
 O         2.223990         0.131697        -1.162157
 H        -0.693202        -0.215460         0.688324
 H        -0.188531         1.341608         0.047981
 H        -0.473062        -0.078100        -1.090062
 H         2.579199        -1.541710         1.377746
 H         2.191011        -2.023141        -0.438110
 H         5.311440         0.164818         0.559281
 H         5.143478         0.422218        -1.121676
 H         5.075267         2.701038         0.316478
 H         3.976362         2.458411        -1.047789
 H         2.574907         0.356773         2.011778
