19
Iteration:  1599charge 0 multiplicity 1
 C         0.099353         0.135780         0.017135
 C         1.542306         0.044118         0.160634
 C         2.229185        -1.355169         0.317586
 C         3.295819        -0.165790        -0.083471
 C         4.623599         0.525919        -0.309444
 C         4.165256         2.100631        -0.085089
 O         2.925102         2.118876         0.785058
 C         2.596997         0.719002         0.990864
 O         2.309598         0.319934        -1.122289
 H        -0.416450        -0.140534         0.922401
 H        -0.143900         1.203968        -0.077476
 H        -0.325149        -0.354451        -0.887472
 H         2.372028        -1.771658         1.258770
 H         1.832512        -2.023200        -0.519603
 H         5.374656         0.047490         0.251565
 H         4.879940         0.344956        -1.288656
 H         4.877114         2.508024         0.644742
 H         3.960377         2.703387        -0.987190
 H         2.728765         0.459980         2.018133
