19
Iteration:   876charge 0 multiplicity 1
 C         0.059576         0.304678        -0.057516
 C         1.426878         0.047173         0.148825
 C         2.313982        -1.351294         0.340755
 C         3.329551        -0.185248        -0.070880
 C         4.754160         0.604927        -0.252696
 C         4.169420         2.001831        -0.112320
 O         2.885405         2.053036         0.825038
 C         2.568758         0.695240         0.935248
 O         2.287101         0.292391        -1.067714
 H        -0.518952        -0.250774         0.661553
 H        -0.098825         1.392585        -0.015862
 H        -0.113894        -0.054280        -1.079167
 H         2.326171        -1.953250         1.280579
 H         2.131761        -2.099048        -0.543233
 H         5.387093         0.204158         0.539458
 H         5.136770         0.371924        -1.226366
 H         4.742186         2.893579         0.263321
 H         3.750265         2.253821        -1.137448
 H         2.552666         0.357211         2.006602
