19
Iteration:  1435charge 0 multiplicity 1
 C        -0.005233         0.077882         0.034260
 C         1.436606        -0.016461         0.202079
 C         2.264878        -1.317546         0.333189
 C         3.288602        -0.071081        -0.157579
 C         4.640299         0.523597        -0.318111
 C         4.227012         2.049183         0.118712
 O         3.009038         2.131171         0.674511
 C         2.635234         0.826235         0.938175
 O         2.221354         0.287450        -1.166908
 H        -0.619925        -0.447070         0.772641
 H        -0.434650         1.101814         0.055584
 H        -0.136075        -0.370213        -0.987567
 H         2.351787        -1.676213         1.406780
 H         2.189147        -2.129875        -0.423284
 H         5.230137         0.114303         0.505409
 H         5.259034         0.377518        -1.208889
 H         5.064560         2.382599         0.703495
 H         4.304845         2.734059        -0.732172
 H         2.775355         0.409329         2.008057
