19
Iteration:    20charge 0 multiplicity 1
 C         0.017410         0.172940         0.177625
 C         1.515857        -0.043242         0.035107
 C         2.166137        -1.428974         0.263406
 C         3.233985        -0.156740        -0.147023
 C         4.629100         0.627467        -0.105135
 C         4.233924         2.126601        -0.084337
 O         2.982106         2.083598         0.715661
 C         2.544157         0.721564         0.963802
 O         2.388032         0.328632        -1.228505
 H        -0.109767         0.151189         1.244275
 H        -0.241218         1.192031        -0.117061
 H        -0.577225        -0.560548        -0.303194
 H         2.145295        -1.639793         1.313765
 H         1.941749        -2.280753        -0.420683
 H         5.068876         0.454329         0.810066
 H         5.461545         0.328365        -0.832871
 H         5.120597         2.599797         0.388527
 H         4.091750         2.493163        -1.171382
 H         2.613987         0.481874         2.076590
