19
Iteration:  3633charge 0 multiplicity 1
 C        -0.006555         0.329885         0.034956
 C         1.475430        -0.059956        -0.048205
 C         2.300139        -1.349989         0.408822
 C         3.362376        -0.113157        -0.002206
 C         4.711783         0.587415        -0.220798
 C         4.052102         2.042425        -0.143092
 O         3.034793         2.019167         0.774028
 C         2.508891         0.739444         0.916017
 O         2.351332         0.215231        -1.089401
 H        -0.264559         0.055543         1.019796
 H        -0.249888         1.428625        -0.049062
 H        -0.750002        -0.302524        -0.519146
 H         2.173008        -1.594994         1.406139
 H         2.261086        -2.181789        -0.322103
 H         5.592724         0.305287         0.567118
 H         5.114847         0.616122        -1.328049
 H         4.668814         2.941226         0.021727
 H         3.601995         2.249528        -1.121473
 H         2.355984         0.661137         2.060676
