19
Iteration:  4860
 C        -0.006865         0.142631        -0.117324
 C         1.409378        -0.038489         0.070068
 C         2.498659        -1.286328         0.522252
 C         3.250648        -0.096863        -0.100325
 C         4.600881         0.495698        -0.293390
 C         4.307383         1.998650        -0.001814
 O         2.887024         2.138728         0.620172
 C         2.571922         0.861811         0.989497
 O         2.239467         0.275339        -1.051634
 H        -0.466777        -0.300306         0.802155
 H        -0.337228         1.168499        -0.144292
 H        -0.543510        -0.369155        -0.920403
 H         2.550224        -1.480681         1.584567
 H         2.356304        -2.258168        -0.020942
 H         5.390484         0.063796         0.388721
 H         5.063066         0.331131        -1.272365
 H         5.196832         2.336758         0.628450
 H         4.325599         2.414865        -0.949433
 H         2.375307         0.598638         2.010635
