19
Iteration:  4226charge 0 multiplicity 1
 C         0.008563        -0.015817        -0.127567
 C         1.464927        -0.022617         0.250369
 C         2.396358        -1.264482         0.330381
 C         3.259290        -0.080985        -0.013095
 C         4.649474         0.354319        -0.341388
 C         4.267502         1.962322        -0.038436
 O         2.946466         2.184895         0.665058
 C         2.531005         0.889203         1.026824
 O         2.189417         0.465373        -1.010273
 H        -0.666251         0.091101         0.737566
 H         0.023820         0.917059        -0.812055
 H        -0.171992        -0.945588        -0.790330
 H         2.712050        -1.785560         1.249367
 H         2.331630        -2.023318        -0.496576
 H         5.406969         0.085918         0.269525
 H         4.994504         0.223065        -1.396553
 H         5.121048         2.262977         0.643265
 H         4.132944         2.411963        -1.032439
 H         2.530529         0.559057         2.150317
