19
Iteration:  1728
 C         0.040646         0.302110        -0.007778
 C         1.493660         0.028656         0.207051
 C         2.529198        -1.396783         0.216815
 C         3.283415        -0.133615        -0.041781
 C         4.581341         0.584606        -0.299325
 C         4.174697         2.005448        -0.097206
 O         2.977430         2.087878         0.769485
 C         2.522053         0.680974         1.009442
 O         2.185773         0.264043        -1.045055
 H        -0.727306         0.293278         0.699427
 H         0.002582         1.229619        -0.487532
 H        -0.348674        -0.461430        -0.681076
 H         2.477588        -1.910800         1.097214
 H         2.215297        -1.990875        -0.651214
 H         5.304709         0.296717         0.418790
 H         4.877099         0.425183        -1.281928
 H         4.950696         2.539652         0.376108
 H         4.053762         2.704655        -0.920153
 H         2.605176         0.433920         2.037000
