19
Iteration:  4824
 C         0.008788         0.179105         0.144880
 C         1.486763        -0.039287         0.069982
 C         2.234341        -1.314587         0.326417
 C         3.280804        -0.128462        -0.053962
 C         4.706518         0.585921        -0.104023
 C         4.325473         2.045005         0.003625
 O         2.889314         2.211398         0.567698
 C         2.493298         0.802785         0.859178
 O         2.353498         0.087302        -1.178987
 H        -0.127485        -0.198473         1.233982
 H        -0.237700         1.274091         0.108305
 H        -0.573475        -0.520968        -0.585645
 H         2.271572        -1.864143         1.312001
 H         2.054856        -1.967513        -0.565543
 H         5.292317         0.240592         0.696285
 H         5.119626         0.496287        -1.099395
 H         4.870019         2.722062         0.633211
 H         4.182044         2.681452        -0.854061
 H         2.356338         0.837290         1.971683
