19
Iteration:  4749charge 0 multiplicity 1
 C        -0.006886         0.050791        -0.163789
 C         1.439763        -0.006732         0.110189
 C         2.295266        -1.274486         0.427642
 C         3.250041        -0.063929         0.067976
 C         4.597734         0.592834        -0.261389
 C         4.215560         2.048354        -0.179881
 O         3.119482         2.114074         0.773079
 C         2.536176         0.818557         1.009713
 O         2.280648         0.182461        -1.077527
 H        -0.582983         0.017378         0.787832
 H        -0.130762         0.980230        -0.719463
 H        -0.252208        -0.751950        -0.920003
 H         2.325278        -1.759257         1.440423
 H         2.002904        -2.054525        -0.299221
 H         5.456137         0.500901         0.464810
 H         4.916675         0.367128        -1.298905
 H         5.063888         2.740661         0.222421
 H         3.820826         2.632609        -0.999835
 H         2.573670         0.645883         2.110017
