19
Iteration:   219charge 0 multiplicity 1
 C         0.020890         0.292242         0.053993
 C         1.472936        -0.026187         0.068718
 C         2.430918        -1.383763         0.259273
 C         3.253281        -0.041735         0.027758
 C         4.629361         0.537304        -0.289203
 C         4.209701         2.055811         0.046556
 O         2.889619         2.050065         0.733231
 C         2.465482         0.775212         0.954601
 O         2.362988         0.223859        -1.168439
 H        -0.361220         0.269037         1.052186
 H         0.088917         1.282343        -0.324368
 H        -0.706387        -0.285602        -0.495195
 H         2.549986        -1.944395         1.171685
 H         2.229663        -2.080132        -0.556116
 H         5.362513         0.155012         0.391422
 H         4.696961         0.278434        -1.348349
 H         5.047690         2.517491         0.613364
 H         4.155208         2.552482        -0.953008
 H         2.625804         0.415002         1.986554
