19
Iteration:  1594
 C         0.084292         0.163639         0.023955
 C         1.508203         0.012438         0.115934
 C         2.193884        -1.326028         0.297648
 C         3.291878        -0.160014        -0.090318
 C         4.548874         0.567527        -0.321465
 C         4.130749         2.053835        -0.050736
 O         2.966748         2.085765         0.767657
 C         2.612035         0.734699         0.972850
 O         2.356827         0.285785        -1.075599
 H        -0.405689        -0.125103         0.982281
 H         0.130405         1.281211        -0.050712
 H        -0.274159        -0.428857        -0.820685
 H         2.355340        -1.718243         1.373879
 H         1.963848        -2.031263        -0.454667
 H         5.557301         0.340465         0.233265
 H         5.085439         0.508628        -1.396317
 H         4.861826         2.594606         0.621226
 H         3.912441         2.712989        -0.949486
 H         2.718269         0.415397         2.050595
