19
Iteration:  4774
 C        -0.060479         0.150386        -0.029088
 C         1.457176        -0.036979         0.089936
 C         2.515617        -1.345732         0.335734
 C         3.251494        -0.039552        -0.008404
 C         4.659463         0.419425        -0.174785
 C         4.240101         1.976956        -0.074214
 O         2.941524         2.190240         0.630188
 C         2.504781         0.855542         0.984065
 O         2.258729         0.266893        -1.064002
 H        -0.512002         0.201844         0.925614
 H        -0.181844         1.043324        -0.572080
 H        -0.426046        -0.621416        -0.634407
 H         2.468851        -1.808216         1.281490
 H         2.379290        -2.115368        -0.461014
 H         5.254755         0.130629         0.765969
 H         5.176271         0.231902        -1.136495
 H         4.959245         2.744015         0.287654
 H         3.888236         2.386343        -1.019807
 H         2.493598         0.785319         2.060691
