19
Iteration:  4352charge 0 multiplicity 1
 C        -0.020294         0.027933         0.028740
 C         1.462520         0.061111         0.125531
 C         2.249344        -1.249006         0.262539
 C         3.272157        -0.110755         0.022041
 C         4.667657         0.479306        -0.265999
 C         4.251051         2.026724         0.014066
 O         2.878623         2.113461         0.568380
 C         2.585979         0.902277         1.056823
 O         2.351682         0.267310        -1.113844
 H        -0.252000        -0.182352         1.029549
 H        -0.317960         0.970877        -0.370334
 H        -0.162167        -0.804691        -0.589225
 H         2.363342        -1.709007         1.249371
 H         2.218794        -2.077063        -0.546554
 H         5.438704         0.058699         0.446870
 H         4.908323         0.185725        -1.292392
 H         5.022445         2.538355         0.680371
 H         4.258341         2.646788        -0.902148
 H         2.733988         0.685864         2.128508
