19
Iteration:  3338
 C        -0.029482        -0.000055         0.014989
 C         1.454799         0.048033         0.109821
 C         2.322640        -1.258462         0.213280
 C         3.273972        -0.131749         0.083993
 C         4.610051         0.454365        -0.209378
 C         4.173089         1.992574        -0.199033
 O         3.092841         2.146174         0.728162
 C         2.487621         0.814531         1.017224
 O         2.356104         0.391615        -1.057876
 H        -0.547190        -0.196843         1.001106
 H        -0.302934         0.913509        -0.478695
 H        -0.268056        -0.794126        -0.706584
 H         2.376059        -1.770597         1.232996
 H         2.175140        -1.783433        -0.742659
 H         5.319494         0.285360         0.577023
 H         5.014127         0.131121        -1.127249
 H         4.918739         2.681618         0.257464
 H         3.773885         2.206513        -1.153831
 H         2.375950         0.749617         2.086046
