19
Iteration:  3183
 C        -0.056038        -0.059100         0.065686
 C         1.423802         0.040742        -0.008688
 C         2.324125        -1.222232         0.335201
 C         3.270621        -0.041159         0.017867
 C         4.637049         0.460358        -0.236960
 C         4.285062         2.022919        -0.003100
 O         3.113292         2.175694         0.751452
 C         2.515757         0.835909         0.917194
 O         2.201073         0.295285        -1.228457
 H        -0.314404        -0.139812         1.168537
 H        -0.515681         0.941749        -0.106134
 H        -0.488122        -0.879950        -0.524242
 H         2.491437        -1.722545         1.370844
 H         2.398578        -1.975662        -0.506212
 H         5.350596        -0.050830         0.487509
 H         4.999274         0.130255        -1.221312
 H         5.082032         2.473110         0.664993
 H         4.116038         2.679852        -0.824667
 H         2.568462         0.618548         2.103402
