19
Iteration:    80charge 0 multiplicity 1
 C         0.022543         0.177859        -0.070823
 C         1.425192        -0.125518         0.185282
 C         2.351955        -1.286920         0.284125
 C         3.268970        -0.051744        -0.060993
 C         4.634864         0.485892        -0.296559
 C         4.190038         2.047178        -0.064954
 O         3.027781         2.083689         0.682265
 C         2.542215         0.745617         1.020756
 O         2.254269         0.339172        -1.020184
 H        -0.555454         0.060088         0.876805
 H        -0.089510         1.211897        -0.412255
 H        -0.452163        -0.535962        -0.812246
 H         2.453495        -1.704402         1.318912
 H         2.241856        -2.056121        -0.486564
 H         5.417785         0.263202         0.473262
 H         5.049218         0.419726        -1.261519
 H         4.977680         2.473681         0.577355
 H         4.030728         2.702885        -0.863628
 H         2.705715         0.540644         2.071632
