19
Iteration:   305charge 0 multiplicity 1
 C        -0.041561        -0.029491         0.039762
 C         1.473409         0.056901         0.059648
 C         2.335565        -1.225547         0.135835
 C         3.257745        -0.055473         0.060943
 C         4.618485         0.408484        -0.159710
 C         4.276808         2.014983        -0.046700
 O         3.043414         2.077304         0.694908
 C         2.486116         0.764619         0.984426
 O         2.303429         0.482645        -1.079017
 H        -0.393589        -0.532592         0.982057
 H        -0.535480         0.940050         0.065807
 H        -0.298792        -0.719702        -0.801748
 H         2.362257        -1.699288         1.115384
 H         2.365360        -1.969479        -0.715439
 H         5.285405        -0.156316         0.529734
 H         4.967253         0.071255        -1.182792
 H         4.972096         2.753937         0.316263
 H         4.013403         2.419977        -1.069014
 H         2.361028         0.781524         2.052750
