19
Iteration:  1391charge 0 multiplicity 1
 C        -0.122729         0.234137         0.115530
 C         1.466446        -0.062688         0.047930
 C         2.439628        -1.363876         0.219176
 C         3.348666        -0.187304        -0.021083
 C         4.636836         0.521631        -0.304920
 C         4.177911         1.981868         0.049222
 O         2.932228         2.112185         0.633492
 C         2.517353         0.810739         1.021808
 O         2.356384         0.328465        -1.117622
 H        -0.328938         0.198044         1.204512
 H        -0.195768         1.310065        -0.198934
 H        -0.595956        -0.479612        -0.573228
 H         2.523146        -1.752871         1.314759
 H         2.196241        -2.021640        -0.644024
 H         5.433852         0.131576         0.343206
 H         4.841617         0.441012        -1.421585
 H         4.790494         2.495451         0.754557
 H         4.245411         2.765360        -0.759476
 H         2.427444         0.695295         2.223862
