19
Iteration:  1563charge 0 multiplicity 1
 C        -0.070307         0.324532         0.034910
 C         1.445355         0.031024         0.051364
 C         2.519993        -1.377617         0.286619
 C         3.302706        -0.153912        -0.007694
 C         4.677628         0.475138        -0.287456
 C         4.130776         2.060734        -0.093053
 O         2.959940         2.054735         0.865133
 C         2.507523         0.731902         0.957741
 O         2.256340         0.250790        -1.123426
 H        -0.440801         0.279365         1.067373
 H         0.086995         1.351065        -0.373069
 H        -0.623141        -0.267946        -0.716138
 H         2.923574        -1.868541         1.218122
 H         2.372592        -2.086217        -0.449932
 H         5.555369         0.538691         0.390955
 H         4.784595         0.411681        -1.418861
 H         4.859382         2.834044         0.358171
 H         3.868924         2.517459        -1.154637
 H         2.507625         0.343638         1.944099
