19
Iteration:  2427
 C         0.013505         0.176677         0.227917
 C         1.470673        -0.025603        -0.013982
 C         2.298353        -1.327398         0.306598
 C         3.307282        -0.061387        -0.038393
 C         4.640800         0.506647        -0.278715
 C         4.297928         2.129485         0.048462
 O         2.915842         2.106082         0.673613
 C         2.497401         0.740776         0.898365
 O         2.285396         0.194758        -1.223005
 H        -0.176425         0.240612         1.343896
 H        -0.394334         1.184376        -0.077790
 H        -0.557772        -0.545699        -0.281372
 H         2.560818        -1.677855         1.352716
 H         2.261173        -2.175074        -0.504254
 H         5.469316         0.182976         0.392073
 H         4.994958         0.498007        -1.313369
 H         5.061386         2.382472         0.778038
 H         4.316554         2.831971        -0.768677
 H         2.452026         0.641043         2.089117
