19
Iteration:  1034charge 0 multiplicity 1
 C         0.029578         0.216288        -0.010776
 C         1.465913         0.047403         0.095184
 C         2.140275        -1.295824         0.350315
 C         3.342217        -0.147291        -0.024651
 C         4.719416         0.601133        -0.245573
 C         4.176795         2.079388        -0.079132
 O         2.935729         2.041579         0.755756
 C         2.611539         0.714039         0.996978
 O         2.326203         0.228552        -1.192990
 H        -0.244658         0.015727         1.075886
 H        -0.261640         1.285778        -0.130856
 H        -0.656824        -0.430214        -0.562675
 H         2.260880        -1.853829         1.387592
 H         2.107812        -2.009447        -0.483763
 H         5.449667         0.253396         0.469606
 H         5.233683         0.401772        -1.178279
 H         5.079679         2.539848         0.358394
 H         3.770750         2.603114        -0.923462
 H         2.764035         0.339228         2.026788
