19
Iteration:   351
 C         0.018355         0.228008         0.072601
 C         1.526063        -0.025828         0.006919
 C         2.349434        -1.300922         0.217585
 C         3.274292        -0.119917        -0.076652
 C         4.593518         0.566186        -0.113074
 C         4.139213         2.034620        -0.019215
 O         3.035123         2.053329         0.771396
 C         2.521856         0.726464         0.916887
 O         2.243195         0.257020        -1.151426
 H        -0.606795        -0.258880         0.861852
 H        -0.113609         1.293451         0.324797
 H        -0.373632        -0.066131        -0.930152
 H         2.401432        -1.722390         1.238548
 H         2.181741        -2.083082        -0.600027
 H         5.393026         0.471755         0.720101
 H         5.217578         0.404587        -1.000473
 H         4.967734         2.676034         0.509706
 H         4.129166         2.559994        -1.043323
 H         2.797410         0.501022         1.971235
