19
Iteration:  2813charge 0 multiplicity 1
 C         0.026951         0.116800        -0.031391
 C         1.480930        -0.014749         0.126758
 C         2.405317        -1.289131         0.217247
 C         3.215093        -0.106803         0.013117
 C         4.601943         0.499044        -0.231132
 C         4.178683         1.998067        -0.182805
 O         2.998890         2.062688         0.753571
 C         2.513192         0.750602         1.065262
 O         2.300452         0.402412        -1.034706
 H        -0.376001         0.037524         0.963905
 H        -0.192448         1.077598        -0.596118
 H        -0.362534        -0.772004        -0.617241
 H         2.513789        -1.672566         1.229912
 H         2.114189        -1.865121        -0.632108
 H         5.441821         0.310015         0.478289
 H         4.849969         0.260968        -1.317556
 H         5.032812         2.697844         0.278129
 H         3.990412         2.580146        -1.088230
 H         2.655714         0.509925         2.117073
