19
Iteration:  2348
 C        -0.015648         0.086829        -0.036787
 C         1.466711         0.023409         0.116056
 C         2.323406        -1.336458         0.300137
 C         3.283152        -0.064734         0.016921
 C         4.615526         0.471242        -0.334360
 C         4.160686         2.063952        -0.215196
 O         3.118306         2.113952         0.852562
 C         2.567367         0.803664         1.036658
 O         2.241126         0.320492        -1.076481
 H        -0.507286        -0.538754         0.734454
 H        -0.439855         1.152127        -0.043379
 H        -0.346159        -0.374550        -1.031170
 H         2.190705        -1.825225         1.404477
 H         2.334934        -2.058691        -0.474390
 H         5.282200         0.229412         0.523551
 H         5.234342         0.079532        -1.211143
 H         4.790284         2.945663         0.064591
 H         3.817888         2.215249        -1.166375
 H         2.606013         0.705174         2.222911
