19
Iteration:  2116
 C        -0.071445         0.177953         0.166132
 C         1.466995        -0.026844         0.063411
 C         2.398369        -1.301323         0.290074
 C         3.302822        -0.155016        -0.097059
 C         4.640606         0.508224        -0.290181
 C         4.264436         2.054830         0.024693
 O         2.931962         2.197543         0.765895
 C         2.515937         0.792099         0.931344
 O         2.280519         0.207468        -1.197360
 H        -0.413727         0.063955         1.177689
 H        -0.368207         1.117616        -0.265398
 H        -0.484776        -0.502120        -0.656857
 H         2.657670        -1.661544         1.336390
 H         2.299192        -2.172634        -0.480307
 H         5.385602        -0.026520         0.320152
 H         5.020970         0.509075        -1.332142
 H         5.090319         2.610178         0.660369
 H         4.217362         2.591833        -0.866850
 H         2.502807         0.443259         1.982317
