19
Iteration:  4269
 C        -0.059234         0.106024         0.037892
 C         1.440951        -0.033587         0.070339
 C         2.257346        -1.263153         0.410654
 C         3.352297        -0.124758        -0.021821
 C         4.674544         0.597398        -0.342931
 C         4.338593         2.101867         0.108911
 O         2.988009         2.163178         0.656032
 C         2.547082         0.760255         0.909410
 O         2.249499         0.144133        -1.152787
 H        -0.598941        -0.227445         0.947629
 H        -0.376479         1.185049        -0.234440
 H        -0.456409        -0.517716        -0.850592
 H         2.155951        -1.514132         1.477111
 H         2.206129        -2.103935        -0.317827
 H         5.546979         0.184923         0.093892
 H         4.817663         0.493137        -1.470059
 H         4.912005         2.388535         0.975494
 H         4.280707         2.771090        -0.729373
 H         2.618845         0.742831         2.018467
