19
Iteration:  3075charge 0 multiplicity 1
 C         0.061196         0.250989         0.075518
 C         1.515286        -0.049275        -0.005891
 C         2.210034        -1.277918         0.335334
 C         3.313705        -0.049998        -0.040740
 C         4.698926         0.592360        -0.293086
 C         4.058404         2.062189        -0.159777
 O         3.022995         1.992825         0.803325
 C         2.525224         0.760504         1.027660
 O         2.382600         0.236029        -1.115031
 H        -0.260434        -0.355276         0.998102
 H        -0.296340         1.294740        -0.060582
 H        -0.501453        -0.324097        -0.671119
 H         2.084048        -1.659336         1.389152
 H         2.124031        -2.166325        -0.384287
 H         5.280234         0.187620         0.700701
 H         5.083071         0.349328        -1.324197
 H         4.851519         2.749195         0.216336
 H         3.627887         2.318283        -1.132801
 H         2.457281         0.528057         2.023305
