19
Iteration:  1898charge 0 multiplicity 1
 C         0.015737         0.224731         0.070126
 C         1.483306        -0.014696         0.139721
 C         2.414149        -1.283963         0.329370
 C         3.256619        -0.059910        -0.208237
 C         4.617679         0.565424        -0.382564
 C         4.266216         2.047375         0.178211
 O         2.917730         2.076649         0.710886
 C         2.575363         0.725638         0.933426
 O         2.187656         0.183428        -1.151729
 H        -0.430415         0.234809         1.072777
 H        -0.118247         1.176889        -0.445182
 H        -0.478883        -0.594831        -0.456443
 H         2.713384        -1.506448         1.323140
 H         2.291633        -2.103554        -0.317487
 H         5.370005         0.043919         0.218553
 H         5.019255         0.546857        -1.392757
 H         5.034960         2.249454         0.978581
 H         4.195045         2.771711        -0.565936
 H         2.683576         0.611760         1.946924
