19
Iteration:   744charge 0 multiplicity 1
 C        -0.002903         0.140147         0.054126
 C         1.515409        -0.009701         0.035550
 C         2.296107        -1.354061         0.261200
 C         3.334274        -0.211508        -0.075355
 C         4.621052         0.516691        -0.281656
 C         4.269067         2.023684         0.112625
 O         2.877065         2.071102         0.631537
 C         2.548309         0.829435         0.974558
 O         2.302890         0.403691        -1.113566
 H        -0.439776        -0.015903         1.050554
 H        -0.073299         1.234588        -0.008888
 H        -0.510453        -0.435492        -0.710212
 H         2.390140        -1.700571         1.338909
 H         2.008478        -2.133161        -0.514390
 H         5.306438         0.137691         0.533099
 H         5.051172         0.285479        -1.224477
 H         4.966672         2.326603         0.933061
 H         4.330726         2.789263        -0.667115
 H         2.635607         0.750072         2.035210
