19
Iteration:  1424
 C         0.046870         0.113269         0.039305
 C         1.538408        -0.007243         0.121165
 C         2.296505        -1.330567         0.296605
 C         3.229675        -0.096049        -0.104842
 C         4.614875         0.521251        -0.316529
 C         4.356492         2.029285         0.065391
 O         2.906290         2.153646         0.702329
 C         2.544467         0.782930         0.951327
 O         2.251304         0.291820        -1.129646
 H        -0.305492        -0.475163         0.905329
 H        -0.246357         1.190520         0.077476
 H        -0.432590        -0.361069        -0.844125
 H         2.462050        -1.662555         1.367257
 H         1.956179        -2.165194        -0.335477
 H         5.324346         0.066819         0.370779
 H         4.930367         0.460500        -1.384576
 H         4.902417         2.463393         0.874000
 H         4.265683         2.563297        -0.886385
 H         2.616151         0.691813         2.094111
