19
Iteration:  1353charge 0 multiplicity 1
 C        -0.008294         0.162235         0.021433
 C         1.507195         0.001644         0.112287
 C         2.367771        -1.254612         0.296840
 C         3.295404        -0.149106        -0.158693
 C         4.658217         0.554710        -0.175357
 C         4.167207         2.071643        -0.020627
 O         3.017624         2.047030         0.748016
 C         2.629322         0.734678         1.017959
 O         2.143045         0.288049        -1.192004
 H        -0.633245         0.239647         0.913317
 H        -0.126907         1.073131        -0.558070
 H        -0.588819        -0.556329        -0.570329
 H         2.496603        -1.660519         1.240421
 H         2.079687        -2.088328        -0.344867
 H         5.245257         0.261027         0.726343
 H         5.261779         0.509859        -1.050627
 H         5.044608         2.492709         0.583432
 H         3.974633         2.470423        -0.999777
 H         2.795110         0.492271         2.069623
