19
Iteration:  2034
 C        -0.001702         0.149003        -0.005137
 C         1.513122         0.047640         0.104364
 C         2.398961        -1.330016         0.271128
 C         3.287330        -0.124425         0.070213
 C         4.588667         0.537006        -0.316966
 C         4.092294         2.008301        -0.239949
 O         3.038491         2.013724         0.807652
 C         2.496290         0.762601         1.089843
 O         2.341608         0.411919        -1.089806
 H        -0.535532        -0.381269         0.845010
 H        -0.252609         1.248293        -0.064270
 H        -0.272172        -0.496107        -0.870654
 H         2.276835        -1.767108         1.348836
 H         2.318520        -2.061827        -0.553382
 H         5.406405         0.397664         0.448828
 H         4.805625         0.247906        -1.390347
 H         4.882856         2.501762         0.239472
 H         3.756015         2.526512        -1.230537
 H         2.561700         0.427517         2.101709
