19
Iteration:   832charge 0 multiplicity 1
 C        -0.038758         0.160663        -0.090738
 C         1.472609         0.012825         0.106852
 C         2.354416        -1.347104         0.236197
 C         3.319608        -0.087379         0.036867
 C         4.689821         0.455159        -0.324823
 C         4.208465         2.017580        -0.104500
 O         3.034197         2.103135         0.873792
 C         2.436544         0.782841         1.070275
 O         2.298426         0.350158        -1.082109
 H        -0.715682        -0.024585         0.734916
 H        -0.404969         1.145745        -0.430211
 H        -0.264155        -0.542751        -0.889539
 H         2.376426        -1.786272         1.261470
 H         2.330400        -2.136739        -0.634849
 H         5.488376         0.174704         0.377134
 H         4.809141         0.292279        -1.358960
 H         5.030499         2.750633         0.110269
 H         3.886546         2.327874        -1.127962
 H         2.357450         0.665205         2.177109
