19
Iteration:   447charge 0 multiplicity 1
 C        -0.052563         0.057562         0.032130
 C         1.448238         0.017283        -0.029549
 C         2.407591        -1.249241         0.207767
 C         3.171023        -0.025347        -0.052924
 C         4.630509         0.489999        -0.152928
 C         4.296067         2.004702        -0.055477
 O         3.052302         2.034175         0.834419
 C         2.482721         0.776427         1.005997
 O         2.269041         0.413216        -1.183956
 H        -0.405803         0.011829         1.104083
 H        -0.486980         1.011123        -0.291051
 H        -0.493734        -0.894230        -0.376901
 H         2.416186        -1.610880         1.224467
 H         2.469992        -2.137311        -0.483090
 H         5.241024         0.034740         0.693393
 H         5.227704         0.253402        -1.045793
 H         5.122582         2.503071         0.352115
 H         4.183457         2.454865        -1.077607
 H         2.503110         0.418014         2.064853
