19
Iteration:  3959charge 0 multiplicity 1
 C         0.016462         0.316687        -0.064380
 C         1.475763        -0.062412         0.074827
 C         2.392757        -1.353334         0.504608
 C         3.240330        -0.163079        -0.090986
 C         4.692445         0.698226        -0.338627
 C         4.206182         2.112307        -0.031819
 O         2.930611         2.037591         0.799947
 C         2.467937         0.674444         0.900097
 O         2.289343         0.165062        -1.147996
 H        -0.578044        -0.141104         0.837837
 H        -0.110540         1.419710        -0.015525
 H        -0.458805        -0.101572        -1.010496
 H         2.461038        -1.371218         1.629537
 H         2.219784        -2.179946        -0.110580
 H         5.449550         0.404061         0.369472
 H         5.192336         0.581262        -1.237490
 H         5.037281         2.581407         0.695619
 H         4.255405         2.705359        -0.923999
 H         2.628534         0.226751         1.921907
