19
Iteration:  4265
 C        -0.056979         0.089094         0.002080
 C         1.438113        -0.026030         0.070757
 C         2.251489        -1.251880         0.431180
 C         3.343292        -0.125226         0.009853
 C         4.642266         0.597827        -0.363342
 C         4.320624         2.062676         0.096759
 O         2.998683         2.134996         0.643469
 C         2.551809         0.773076         0.937546
 O         2.258450         0.183834        -1.140994
 H        -0.630399        -0.181009         0.866136
 H        -0.363452         1.068316        -0.250491
 H        -0.487264        -0.521983        -0.739536
 H         2.300150        -1.592441         1.455662
 H         2.327716        -1.975013        -0.415820
 H         5.671217         0.271520         0.112908
 H         4.742839         0.431205        -1.461632
 H         4.968901         2.458700         0.897832
 H         4.354799         2.836023        -0.682863
 H         2.636917         0.716218         1.992818
