19
Iteration:  1008charge 0 multiplicity 1
 C        -0.022412         0.172560        -0.020375
 C         1.415049         0.002167         0.039199
 C         2.415217        -1.277708         0.349818
 C         3.235433        -0.110445        -0.051903
 C         4.577065         0.548043        -0.323824
 C         4.235602         2.006005         0.000338
 O         3.095733         2.094931         0.818841
 C         2.447586         0.834303         0.970474
 O         2.317938         0.209105        -1.132240
 H        -0.440488         0.212596         0.980156
 H        -0.287629         1.089765        -0.534147
 H        -0.561225        -0.678504        -0.468716
 H         2.526867        -1.644522         1.315761
 H         2.350847        -2.073361        -0.391211
 H         5.264575        -0.016759         0.275149
 H         5.086038         0.519263        -1.319491
 H         5.179683         2.363132         0.468192
 H         3.944592         2.621995        -0.917871
 H         2.202579         0.692763         2.079221
