19
Iteration:  3182
 C        -0.050878        -0.057624         0.074866
 C         1.421663         0.039754        -0.006362
 C         2.326269        -1.221532         0.334832
 C         3.267649        -0.035298         0.023975
 C         4.627986         0.458024        -0.233993
 C         4.287892         2.020105        -0.010905
 O         3.107160         2.178488         0.758165
 C         2.520576         0.828751         0.911414
 O         2.209700         0.295550        -1.231190
 H        -0.330893        -0.135948         1.134219
 H        -0.516934         0.951173        -0.112066
 H        -0.475959        -0.883340        -0.536511
 H         2.464797        -1.704809         1.362672
 H         2.404839        -1.976033        -0.521811
 H         5.337329        -0.040726         0.439839
 H         4.997872         0.111196        -1.220846
 H         5.080943         2.474565         0.688363
 H         4.114843         2.676591        -0.852452
 H         2.562495         0.616147         2.089149
