19
Iteration:  1392
 C        -0.129026         0.237715         0.118132
 C         1.470792        -0.062520         0.050026
 C         2.443923        -1.357824         0.220798
 C         3.344197        -0.171548        -0.000803
 C         4.635700         0.518766        -0.320796
 C         4.175700         1.979801         0.053742
 O         2.941219         2.105417         0.631988
 C         2.512180         0.805626         1.015547
 O         2.358871         0.329484        -1.124383
 H        -0.328128         0.163023         1.188477
 H        -0.209765         1.291879        -0.181120
 H        -0.594032        -0.467678        -0.572288
 H         2.512968        -1.737870         1.310536
 H         2.238836        -2.050177        -0.666837
 H         5.455204         0.134318         0.373873
 H         4.808299         0.426319        -1.415952
 H         4.751612         2.480769         0.778514
 H         4.227487         2.729757        -0.743478
 H         2.419735         0.718783         2.196067
