19
Iteration:  3126
 C         0.058608         0.244509        -0.011887
 C         1.477393        -0.039745         0.205784
 C         2.369236        -1.328218         0.278786
 C         3.288750        -0.110593        -0.012261
 C         4.620682         0.609644        -0.196514
 C         4.256774         2.008334        -0.187483
 O         2.878855         2.042472         0.694734
 C         2.583267         0.720124         1.046086
 O         2.213835         0.315105        -1.092809
 H        -0.577497        -0.024434         0.791688
 H         0.059977         1.351362        -0.289362
 H        -0.422573        -0.174531        -0.977379
 H         2.563579        -1.784667         1.300363
 H         2.309060        -2.098973        -0.588329
 H         5.334767         0.276461         0.526896
 H         5.125596         0.263848        -1.153318
 H         5.037019         2.652525         0.325943
 H         3.813336         2.330771        -1.178229
 H         2.933043         0.288609         2.180769
