19
Iteration:  3905
 C        -0.000812         0.011874        -0.002110
 C         1.498712         0.031260         0.093003
 C         2.310118        -1.255563         0.234412
 C         3.272085        -0.117044         0.062462
 C         4.644097         0.456443        -0.199057
 C         4.135661         1.996617        -0.136055
 O         3.014839         2.089151         0.686286
 C         2.507041         0.793259         0.994922
 O         2.378280         0.467622        -1.040925
 H        -0.424840        -0.535122         0.924667
 H        -0.478118         0.994649        -0.192360
 H        -0.352102        -0.567652        -0.919284
 H         2.297498        -1.791013         1.286989
 H         2.059883        -1.994176        -0.489323
 H         5.247059         0.174219         0.639510
 H         5.079711         0.236906        -1.142624
 H         5.006847         2.755941         0.136243
 H         3.982689         2.174773        -1.200158
 H         2.418399         0.701359         2.098808
