19
Iteration:  2911charge 0 multiplicity 1
 C         0.014558         0.197415         0.024488
 C         1.503624        -0.015383         0.172414
 C         2.297490        -1.372125         0.305924
 C         3.290970        -0.087230        -0.061315
 C         4.612936         0.549730        -0.300961
 C         4.172460         2.061678         0.029163
 O         2.952276         2.064432         0.570666
 C         2.577450         0.712910         0.958502
 O         2.268182         0.328042        -1.047539
 H        -0.460039        -0.300986         0.865267
 H        -0.069035         1.314263        -0.033184
 H        -0.447261        -0.230859        -0.875636
 H         2.567869        -1.803202         1.239359
 H         2.272572        -2.087349        -0.524655
 H         5.349925         0.245100         0.543881
 H         4.950827         0.296777        -1.364034
 H         4.940767         2.302021         0.895474
 H         4.228619         2.876536        -0.690355
 H         3.021081         0.594679         2.065762
