19
Iteration:  1927charge 0 multiplicity 1
 C        -0.003781         0.176628         0.135494
 C         1.453596        -0.023667         0.138031
 C         2.365003        -1.400997         0.214455
 C         3.292716        -0.114613        -0.083258
 C         4.619658         0.606198        -0.298130
 C         4.289556         2.000568         0.176932
 O         2.925778         2.107737         0.538062
 C         2.617744         0.759544         0.966421
 O         2.192528         0.302052        -1.121342
 H        -0.412308         0.228356         1.190143
 H        -0.414661         1.079337        -0.400726
 H        -0.536675        -0.589887        -0.394139
 H         2.608270        -1.890323         1.205483
 H         2.265631        -2.117673        -0.608758
 H         5.476207         0.193424         0.226253
 H         5.024424         0.541919        -1.344407
 H         5.038924         2.347560         0.973522
 H         4.256518         2.834960        -0.645755
 H         2.704284         0.820809         2.158745
