19
Iteration:   247
 C         0.023007         0.236672        -0.106148
 C         1.462836         0.010555         0.134025
 C         2.364152        -1.351638         0.388219
 C         3.287427        -0.113708        -0.152420
 C         4.638834         0.686566        -0.343719
 C         4.232274         2.065901         0.085610
 O         3.006252         2.056520         0.835953
 C         2.577953         0.708098         0.914785
 O         2.161962         0.179804        -1.122316
 H        -0.677480         0.259010         0.769962
 H        -0.044585         1.166441        -0.756159
 H        -0.461523        -0.535926        -0.762135
 H         2.558420        -1.475343         1.491987
 H         2.164440        -2.297213        -0.135186
 H         5.241103         0.310603         0.489860
 H         5.065930         0.554125        -1.373314
 H         5.076809         2.304118         0.705931
 H         4.153395         2.679504        -0.819385
 H         2.713980         0.391271         1.963180
