19
Iteration:   359
 C        -0.001365         0.291307         0.037401
 C         1.472753        -0.017416         0.049154
 C         2.393054        -1.299612         0.279863
 C         3.306365        -0.124327        -0.025248
 C         4.650383         0.588607        -0.198172
 C         4.161987         1.981780        -0.023479
 O         2.961896         2.058207         0.808002
 C         2.546374         0.724582         0.940900
 O         2.272312         0.241864        -1.210631
 H        -0.450835        -0.320192         0.846967
 H        -0.040006         1.372200         0.194697
 H        -0.569295         0.021106        -0.896855
 H         2.458923        -1.842484         1.207753
 H         2.383576        -1.977209        -0.612495
 H         5.285334         0.223963         0.618518
 H         5.051851         0.564819        -1.237535
 H         4.909504         2.478133         0.534118
 H         3.861570         2.561598        -0.926406
 H         2.530732         0.424899         2.022459
