19
Iteration:   127charge 0 multiplicity 1
 C        -0.018513         0.015356        -0.090110
 C         1.482228        -0.060212         0.047442
 C         2.310456        -1.215831         0.388132
 C         3.228858        -0.055748         0.010932
 C         4.546348         0.527610        -0.394127
 C         4.280670         1.984861        -0.104601
 O         3.134925         2.068807         0.906247
 C         2.492629         0.853612         1.050303
 O         2.318577         0.316237        -1.143410
 H        -0.803285        -0.481771         0.546934
 H        -0.210035         1.143306        -0.047600
 H        -0.442824        -0.295151        -1.088517
 H         2.327312        -1.507611         1.465515
 H         2.236725        -2.106224        -0.305175
 H         5.298752         0.117073         0.382160
 H         4.805325         0.477610        -1.536912
 H         5.017679         2.679140         0.313640
 H         3.797862         2.577169        -0.919957
 H         2.378048         0.689762         2.131206
