19
Iteration:  4229charge 0 multiplicity 1
 C         0.011589        -0.003902        -0.129451
 C         1.480644        -0.017949         0.248990
 C         2.399815        -1.259837         0.315869
 C         3.245115        -0.111217        -0.023847
 C         4.643873         0.346702        -0.371693
 C         4.266327         1.964464        -0.013225
 O         2.932408         2.200833         0.660189
 C         2.506496         0.890169         1.047318
 O         2.203802         0.465017        -0.998521
 H        -0.693621         0.070990         0.711705
 H         0.008389         0.843179        -0.762089
 H        -0.109527        -0.881911        -0.749131
 H         2.743140        -1.803362         1.273142
 H         2.472837        -2.040114        -0.396187
 H         5.479232         0.076803         0.286007
 H         4.864003         0.201712        -1.395471
 H         5.187058         2.264941         0.578514
 H         4.264897         2.402469        -1.086939
 H         2.470824         0.575624         2.109704
