19
Iteration:  2092
 C        -0.012409         0.260789         0.088270
 C         1.474141        -0.030999         0.087243
 C         2.493413        -1.279593         0.316265
 C         3.280860        -0.092507        -0.153151
 C         4.638232         0.569526        -0.170581
 C         4.153175         2.052060        -0.085250
 O         2.989418         2.000880         0.778358
 C         2.537309         0.749746         0.922214
 O         2.176165         0.224872        -1.150771
 H        -0.336443         0.339694         1.150081
 H        -0.112340         1.277877        -0.398337
 H        -0.632501        -0.358457        -0.559876
 H         2.749317        -1.759251         1.354481
 H         2.382329        -2.022082        -0.492088
 H         5.225243         0.198317         0.684253
 H         5.308010         0.484726        -1.019522
 H         4.876598         2.712359         0.401921
 H         3.948743         2.481221        -1.061976
 H         2.682595         0.329963         1.872904
