19
Iteration:  2795charge 0 multiplicity 1
 C        -0.020424         0.188877         0.030436
 C         1.547071        -0.005059         0.070848
 C         2.335248        -1.356782         0.291162
 C         3.335320        -0.096477         0.047973
 C         4.587987         0.517201        -0.400498
 C         4.166848         2.034932        -0.016008
 O         2.919696         2.073029         0.715552
 C         2.511641         0.772864         1.004405
 O         2.374692         0.326221        -1.048974
 H        -0.463650         0.014437         1.070599
 H        -0.167581         1.215357        -0.352708
 H        -0.526695        -0.486704        -0.610268
 H         2.290557        -1.999208         1.232603
 H         2.508734        -2.013093        -0.652441
 H         5.341985         0.301980         0.333651
 H         4.862823         0.380750        -1.422121
 H         5.007117         2.554178         0.422402
 H         4.020473         2.508245        -1.061201
 H         2.377113         0.521465         2.074671
