19
Iteration:   796charge 0 multiplicity 1
 C        -0.037841         0.070903         0.020239
 C         1.439053         0.055467        -0.000440
 C         2.273151        -1.362583         0.298734
 C         3.263861        -0.064243        -0.167786
 C         4.628503         0.535909        -0.135737
 C         4.336774         2.060583        -0.007587
 O         3.060097         2.143405         0.795132
 C         2.560339         0.694399         0.957376
 O         2.198491         0.382155        -1.184194
 H        -0.342397        -0.004962         1.066324
 H        -0.524013         0.893787        -0.498252
 H        -0.244279        -0.884432        -0.399501
 H         2.307705        -1.600859         1.341603
 H         2.423564        -2.174634        -0.317664
 H         5.080001         0.078626         0.787725
 H         5.148822        -0.005699        -0.881187
 H         5.133185         2.631069         0.553458
 H         4.120112         2.457839        -1.035090
 H         2.714674         0.377697         2.057885
