19
Iteration:  3142
 C        -0.037084         0.163001         0.010158
 C         1.491589         0.006119         0.104094
 C         2.350563        -1.287964         0.312228
 C         3.323905        -0.145416         0.016651
 C         4.676595         0.474495        -0.272837
 C         4.145670         2.064736        -0.079712
 O         2.969590         2.062041         0.677795
 C         2.619562         0.732825         0.961177
 O         2.242022         0.369390        -1.059174
 H        -0.613700        -0.119669         0.980768
 H        -0.289795         1.177041        -0.287519
 H        -0.330448        -0.552631        -0.740236
 H         2.277713        -1.753014         1.331457
 H         2.208433        -2.031298        -0.452956
 H         5.416760         0.309203         0.615414
 H         5.031315         0.329724        -1.273912
 H         4.883701         2.666006         0.421778
 H         4.108976         2.464815        -1.095072
 H         2.595532         0.565525         2.017390
