19
Iteration:  1061charge 0 multiplicity 1
 C         0.030002         0.302949         0.054200
 C         1.467445        -0.032004         0.180450
 C         2.384825        -1.377564         0.250803
 C         3.313730        -0.158696        -0.031097
 C         4.625567         0.483828        -0.124171
 C         4.128190         2.033055        -0.156485
 O         2.914301         2.059193         0.672465
 C         2.529948         0.710278         0.936615
 O         2.339252         0.391709        -1.085331
 H        -0.559617        -0.068566         0.889830
 H        -0.008738         1.390025         0.104170
 H        -0.403194         0.001394        -0.917768
 H         2.571803        -1.808884         1.216558
 H         2.303227        -2.106249        -0.596504
 H         5.286472         0.151957         0.784348
 H         5.097682         0.190242        -1.115550
 H         4.947437         2.691099         0.106577
 H         3.770996         2.354601        -1.164200
 H         2.702161         0.498556         2.011717
