19
Iteration:   851charge 0 multiplicity 1
 C         0.022005         0.204174        -0.157221
 C         1.431688        -0.009471         0.031050
 C         2.383864        -1.293985         0.322191
 C         3.272474        -0.147971         0.074197
 C         4.492480         0.549208        -0.290845
 C         4.088058         1.966978        -0.146669
 O         3.029283         2.053115         0.806067
 C         2.584012         0.738887         1.045526
 O         2.396124         0.370481        -1.009901
 H        -0.311370        -0.137570         0.832188
 H         0.024478         1.299629        -0.138743
 H        -0.556539        -0.146175        -0.972406
 H         2.472339        -1.955167         1.117234
 H         2.408433        -1.832816        -0.589062
 H         5.392203         0.275543         0.354030
 H         4.610722         0.167112        -1.275004
 H         4.944522         2.482052         0.376617
 H         3.841629         2.491373        -1.105401
 H         2.598198         0.535782         2.167206
