19
Iteration:   273
 C        -0.080759         0.053789        -0.096325
 C         1.434844         0.006853         0.108740
 C         2.328620        -1.241304         0.291493
 C         3.290199        -0.074690        -0.049991
 C         4.596278         0.485319        -0.347423
 C         4.249519         2.073001         0.056179
 O         3.053556         2.119720         0.833573
 C         2.578171         0.766240         0.999548
 O         2.289376         0.290474        -1.101673
 H        -0.635414        -0.027616         0.851403
 H        -0.452317         0.948107        -0.562785
 H        -0.395454        -0.710097        -0.823493
 H         2.419144        -1.580875         1.334098
 H         2.313135        -2.001678        -0.499834
 H         5.434878         0.018658         0.207517
 H         4.809121         0.401553        -1.451157
 H         5.088422         2.492645         0.610553
 H         4.098812         2.524193        -0.954681
 H         2.596210         0.596125         2.074314
