19
Iteration:   361charge 0 multiplicity 1
 C        -0.001290         0.301153         0.028865
 C         1.453497        -0.016232         0.060743
 C         2.401741        -1.305599         0.289646
 C         3.318665        -0.120982        -0.019560
 C         4.658097         0.584937        -0.231068
 C         4.168725         1.985987        -0.020499
 O         2.940034         2.057221         0.816214
 C         2.549850         0.728165         0.951947
 O         2.283571         0.241031        -1.217716
 H        -0.413042        -0.312822         0.868824
 H        -0.073904         1.392375         0.156583
 H        -0.586751         0.060530        -0.898158
 H         2.470160        -1.859004         1.233172
 H         2.405726        -1.986282        -0.624554
 H         5.296752         0.143489         0.613532
 H         5.037335         0.539547        -1.256335
 H         4.962782         2.510976         0.570211
 H         3.814699         2.526432        -0.950300
 H         2.440739         0.371424         2.024469
