19
Iteration:  2074charge 0 multiplicity 1
 C         0.096944         0.243725         0.059737
 C         1.500558        -0.075466         0.152998
 C         2.330465        -1.408550         0.239927
 C         3.295472        -0.110425        -0.076139
 C         4.575304         0.601264        -0.221537
 C         4.124120         2.069275        -0.166125
 O         3.000363         2.082804         0.762994
 C         2.569364         0.641258         1.000746
 O         2.287567         0.332089        -1.108724
 H        -0.391807         0.334979         0.992896
 H        -0.075006         1.195945        -0.365417
 H        -0.492368        -0.448609        -0.611434
 H         2.314535        -1.738848         1.228103
 H         2.170002        -2.234514        -0.521201
 H         5.005360         0.598065         0.794357
 H         5.176437         0.290042        -1.094033
 H         4.977566         2.809816         0.169963
 H         3.738102         2.505031        -1.077152
 H         2.590528         0.562945         2.175778
