19
Iteration:  1532
 C         0.068263         0.210934         0.034492
 C         1.475412        -0.053904         0.144497
 C         2.346337        -1.302447         0.230898
 C         3.238236        -0.080370        -0.113553
 C         4.620476         0.567081        -0.155637
 C         4.188238         2.085891        -0.172403
 O         2.980923         2.015796         0.795502
 C         2.595289         0.694091         1.042323
 O         2.234712         0.303840        -1.140033
 H        -0.481572         0.336192         0.972842
 H        -0.057323         1.184574        -0.465328
 H        -0.502816        -0.456172        -0.656365
 H         2.547845        -1.706891         1.225365
 H         2.207856        -2.028305        -0.526518
 H         5.163324         0.482986         0.735310
 H         5.215961         0.289037        -1.002306
 H         4.941136         2.746238         0.317734
 H         3.847219         2.326427        -1.202371
 H         2.802338         0.303922         2.024115
