19
Iteration:  4928
 C        -0.008520         0.028019        -0.018481
 C         1.461836         0.007807         0.037922
 C         2.401733        -1.175654         0.414046
 C         3.294276        -0.080058        -0.002128
 C         4.579151         0.466942        -0.165874
 C         4.189367         1.985348        -0.147249
 O         3.057534         2.047891         0.749903
 C         2.464693         0.853063         0.915982
 O         2.305140         0.321202        -1.161565
 H        -0.324600         0.008433         0.993156
 H        -0.201663         1.052571        -0.352896
 H        -0.577295        -0.675467        -0.519857
 H         2.366969        -1.424384         1.482356
 H         2.408733        -1.951937        -0.294155
 H         5.184834         0.120707         0.741015
 H         5.254208         0.309701        -1.073180
 H         4.786787         2.758138         0.371124
 H         3.810954         2.281741        -1.133816
 H         2.425068         0.640168         1.993089
