19
Iteration:  1082charge 0 multiplicity 1
 C         0.009048         0.267449         0.035902
 C         1.443081        -0.116571         0.005941
 C         2.493698        -1.301936         0.183293
 C         3.269329        -0.018368         0.031572
 C         4.597650         0.460481        -0.202113
 C         4.203240         1.893376        -0.195321
 O         2.958225         2.118063         0.734808
 C         2.538989         0.850824         1.115994
 O         2.250201         0.300572        -1.047676
 H        -0.628820        -0.201121         0.763293
 H        -0.066449         1.337660         0.177918
 H        -0.533926         0.079017        -0.924215
 H         2.464818        -1.813389         1.188905
 H         2.580138        -2.068997        -0.673317
 H         5.219245         0.198325         0.762813
 H         5.210347         0.104540        -1.068515
 H         4.891639         2.607941         0.186087
 H         3.851376         2.220912        -1.177277
 H         2.538560         0.466742         2.105388
