19
Iteration:  2098
 C        -0.026557         0.251436         0.079879
 C         1.451804         0.003663         0.111293
 C         2.523098        -1.332602         0.336267
 C         3.299493        -0.048465        -0.159351
 C         4.698910         0.528453        -0.195111
 C         4.174984         2.002972        -0.021504
 O         2.961386         2.057083         0.785698
 C         2.532076         0.750562         0.883279
 O         2.173672         0.211158        -1.188896
 H        -0.393471         0.344362         1.124306
 H        -0.291657         1.265633        -0.257878
 H        -0.730866        -0.364318        -0.499205
 H         2.586967        -1.736499         1.304003
 H         2.403975        -2.036252        -0.470522
 H         5.241734         0.281405         0.728845
 H         5.177132         0.504888        -1.207528
 H         4.889609         2.741030         0.393169
 H         3.808670         2.489688        -1.008349
 H         2.822438         0.389874         1.959271
