19
Iteration:  4702charge 0 multiplicity 1
 C         0.038793         0.094470        -0.139831
 C         1.472751         0.005588         0.080513
 C         2.330170        -1.277676         0.399126
 C         3.272832        -0.059891         0.077026
 C         4.538578         0.546431        -0.241230
 C         4.127921         2.011438        -0.245423
 O         3.129257         2.098804         0.813699
 C         2.494303         0.848296         1.042679
 O         2.329407         0.221547        -1.093795
 H        -0.404821        -0.374350         0.785040
 H        -0.282590         1.216924        -0.255608
 H        -0.207948        -0.456869        -1.108785
 H         2.241439        -1.756438         1.427909
 H         2.493115        -2.054928        -0.334091
 H         5.155895         0.238776         0.577025
 H         5.005288         0.292044        -1.203769
 H         4.748188         2.802266         0.069672
 H         3.727265         2.303177        -1.255636
 H         2.411740         0.691474         2.147813
