19
Iteration:  4658
 C         0.084530         0.186034         0.094382
 C         1.472353         0.010935         0.078000
 C         2.379839        -1.219193         0.328381
 C         3.271121        -0.108099        -0.064506
 C         4.681766         0.482126        -0.080074
 C         4.170637         2.016195        -0.039089
 O         2.845105         2.030903         0.468649
 C         2.529459         0.767797         0.936590
 O         2.322565         0.316793        -1.069108
 H        -0.342561        -0.253326         1.050058
 H        -0.326516         1.298707         0.010054
 H        -0.356575        -0.392871        -0.788389
 H         2.548907        -1.641245         1.356215
 H         2.280264        -2.074796        -0.366708
 H         4.981058         0.364146         0.908305
 H         5.296939         0.195464        -0.925745
 H         4.964601         2.541754         0.441083
 H         4.108717         2.410506        -1.097085
 H         2.605902         0.411293         2.000702
