19
Iteration:  2918
 C         0.051594         0.218816         0.005194
 C         1.498912        -0.040330         0.179347
 C         2.331043        -1.352339         0.271501
 C         3.250019        -0.138812        -0.104077
 C         4.639869         0.573130        -0.287440
 C         4.235137         2.074122         0.091041
 O         2.858518         2.114123         0.551954
 C         2.661773         0.727940         0.956953
 O         2.213669         0.295102        -1.010198
 H        -0.380423        -0.165228         0.917940
 H        -0.089806         1.294481         0.085603
 H        -0.372011        -0.180603        -0.973354
 H         2.638625        -1.821976         1.291419
 H         2.087206        -2.107394        -0.461560
 H         5.303338        -0.038267         0.414919
 H         5.089725         0.265672        -1.280092
 H         4.914489         2.378586         0.839624
 H         4.288809         2.673102        -0.830460
 H         2.859299         0.457625         2.009172
