19
Iteration:  2815
 C         0.008478         0.103594        -0.033274
 C         1.492969        -0.010535         0.129268
 C         2.400683        -1.277957         0.213849
 C         3.228899        -0.116372         0.007134
 C         4.609008         0.485728        -0.226282
 C         4.183687         2.003903        -0.167520
 O         3.003128         2.071527         0.755811
 C         2.518352         0.752639         1.074942
 O         2.286812         0.406835        -1.042005
 H        -0.467266         0.033605         0.981782
 H        -0.154951         1.049503        -0.619294
 H        -0.363756        -0.739561        -0.616583
 H         2.534414        -1.670406         1.254652
 H         2.095418        -1.932292        -0.657950
 H         5.404117         0.356458         0.464928
 H         4.875490         0.311501        -1.266903
 H         5.037430         2.690726         0.216487
 H         3.958476         2.521881        -1.179980
 H         2.659676         0.485294         2.068280
