19
Iteration:  3417
 C        -0.004435         0.301258         0.030801
 C         1.532289        -0.002784         0.085493
 C         2.426435        -1.296295         0.351566
 C         3.351622        -0.176317         0.023828
 C         4.642128         0.487037        -0.250622
 C         4.153895         2.123346         0.012476
 O         2.918792         2.131814         0.718081
 C         2.563226         0.784537         0.916391
 O         2.194708         0.103203        -1.209667
 H        -0.420252        -0.087896         0.891899
 H        -0.111599         1.429888         0.008688
 H        -0.398776        -0.197375        -0.883306
 H         2.313745        -1.637972         1.415733
 H         2.392458        -2.164583        -0.463936
 H         5.417210         0.264334         0.369073
 H         5.020961         0.193724        -1.285842
 H         4.862493         2.430215         0.682940
 H         4.201009         2.809449        -0.878622
 H         2.444207         0.595707         2.001659
