19
Iteration:  3750
 C        -0.091217         0.116802         0.108460
 C         1.438733        -0.070143         0.046948
 C         2.335056        -1.280020         0.336130
 C         3.299559        -0.058740        -0.131449
 C         4.667479         0.534190        -0.249534
 C         4.343958         2.075898         0.156872
 O         2.988079         2.110912         0.591892
 C         2.566746         0.861682         0.918305
 O         2.212031         0.211320        -1.169246
 H        -0.455700        -0.342195         1.032983
 H        -0.546703         1.166644         0.194468
 H        -0.692966        -0.430530        -0.708551
 H         2.562053        -1.561902         1.414405
 H         2.171391        -2.189430        -0.407886
 H         5.242051        -0.012200         0.498273
 H         5.121998         0.341041        -1.162693
 H         5.171654         2.409128         0.874440
 H         4.364773         2.795442        -0.660968
 H         2.657469         0.565021         1.956970
