19
Iteration:  3651charge 0 multiplicity 1
 C         0.016777         0.201822        -0.007283
 C         1.472511         0.009654         0.148936
 C         2.342837        -1.306596         0.343164
 C         3.266185        -0.138811         0.006019
 C         4.614497         0.514680        -0.270045
 C         4.157385         2.034462        -0.190530
 O         2.947110         2.105142         0.784250
 C         2.583854         0.740785         0.995257
 O         2.351269         0.291465        -1.126219
 H        -0.637102         0.235300         0.905627
 H        -0.084969         1.170621        -0.542763
 H        -0.440652        -0.522721        -0.718249
 H         2.505098        -1.659936         1.417725
 H         2.081672        -2.165431        -0.380847
 H         5.348223         0.352539         0.552404
 H         5.123349         0.168164        -1.121907
 H         4.954292         2.660296         0.220910
 H         3.819643         2.430820        -1.152266
 H         2.632911         0.364463         2.023608
