19
Iteration:   307
 C        -0.064460        -0.024612         0.051595
 C         1.462043         0.069356         0.065214
 C         2.351531        -1.201251         0.111100
 C         3.268082        -0.061281         0.058025
 C         4.635571         0.411246        -0.148327
 C         4.256935         1.993602        -0.038192
 O         3.045455         2.078858         0.680646
 C         2.498095         0.763542         0.971084
 O         2.303876         0.473253        -1.072720
 H        -0.426097        -0.603954         0.940920
 H        -0.510927         0.956809         0.062325
 H        -0.290415        -0.715660        -0.772573
 H         2.366541        -1.657951         1.113744
 H         2.319109        -2.030528        -0.685720
 H         5.284604        -0.166844         0.610874
 H         4.950532         0.097942        -1.147323
 H         4.971423         2.815474         0.313365
 H         3.972814         2.416117        -1.045181
 H         2.407201         0.710224         2.073138
