19
Iteration:  2083
 C         0.045617         0.280729         0.083090
 C         1.485355        -0.081869         0.092657
 C         2.406709        -1.286374         0.258794
 C         3.273299        -0.130875        -0.102669
 C         4.557318         0.629592        -0.194110
 C         4.144666         2.098273        -0.149018
 O         3.018951         2.024612         0.763146
 C         2.567324         0.658247         0.966069
 O         2.223185         0.269793        -1.118694
 H        -0.421826         0.258054         1.039189
 H         0.134014         1.235380        -0.388266
 H        -0.450462        -0.542151        -0.472505
 H         2.748981        -1.623045         1.284628
 H         2.245457        -2.163138        -0.449353
 H         5.012352         0.298854         0.777223
 H         5.284056         0.314902        -0.929403
 H         4.955675         2.719566         0.427208
 H         3.940351         2.404416        -1.103741
 H         2.433915         0.422197         2.077318
