19
Iteration:  1422
 C         0.041976         0.117129         0.046618
 C         1.541059        -0.002961         0.093771
 C         2.312954        -1.321201         0.299542
 C         3.226255        -0.107587        -0.096310
 C         4.615958         0.521133        -0.303899
 C         4.377460         2.022248         0.048633
 O         2.892202         2.150519         0.700671
 C         2.522301         0.770334         0.957051
 O         2.258961         0.293233        -1.116867
 H        -0.256141        -0.471856         0.952056
 H        -0.194595         1.229877         0.069089
 H        -0.446549        -0.349732        -0.838838
 H         2.477875        -1.674150         1.351657
 H         1.971218        -2.077995        -0.350485
 H         5.307582         0.066332         0.321689
 H         4.839053         0.497419        -1.421166
 H         4.922107         2.459452         0.912880
 H         4.232063         2.610235        -0.928108
 H         2.595088         0.674219         2.076713
