19
Iteration:   754charge 0 multiplicity 1
 C        -0.029977         0.161629         0.108142
 C         1.451246         0.024314         0.063964
 C         2.370077        -1.353688         0.173035
 C         3.252786        -0.115892        -0.022447
 C         4.597819         0.426668        -0.231271
 C         4.330808         2.079540         0.085647
 O         2.896195         2.137959         0.626409
 C         2.494949         0.756967         1.027591
 O         2.353822         0.350440        -1.174863
 H        -0.273647        -0.156400         1.117650
 H        -0.427876         1.097008        -0.261737
 H        -0.511153        -0.543015        -0.537514
 H         2.460958        -1.826727         1.193299
 H         2.166673        -2.127612        -0.590591
 H         5.384135         0.074275         0.480467
 H         5.016671         0.406284        -1.156322
 H         5.080886         2.330635         0.877750
 H         4.451895         2.649900        -0.844565
 H         2.558780         0.583821         2.068746
