19
Iteration:  1620charge 0 multiplicity 1
 C        -0.064057         0.108754         0.032608
 C         1.433205         0.016582         0.119930
 C         2.427409        -1.250253         0.247893
 C         3.266733        -0.051745        -0.040088
 C         4.641553         0.491870        -0.294458
 C         4.258643         1.956226        -0.032417
 O         2.995186         2.071627         0.710612
 C         2.568948         0.769239         0.995592
 O         2.212491         0.347824        -1.056096
 H        -0.582595        -0.362422         0.865348
 H        -0.376979         1.138476        -0.039496
 H        -0.309335        -0.387557        -0.968639
 H         2.560748        -1.661702         1.201369
 H         2.465366        -1.975690        -0.612103
 H         5.350253         0.170122         0.429066
 H         5.131076         0.389262        -1.195400
 H         4.998475         2.613521         0.528672
 H         3.917311         2.388607        -1.016889
 H         2.653797         0.541467         2.025870
