19
Iteration:   657
 C        -0.079672         0.110599        -0.006164
 C         1.484034         0.073572         0.056765
 C         2.264045        -1.284043         0.283808
 C         3.279229        -0.129110        -0.094464
 C         4.664760         0.512209        -0.264083
 C         4.201688         2.007166         0.020097
 O         3.018218         2.106786         0.753842
 C         2.554317         0.766049         0.957718
 O         2.342499         0.365107        -1.076312
 H        -0.463058        -0.514393         0.840893
 H        -0.755521         0.985994        -0.237299
 H        -0.278247        -0.620255        -0.826327
 H         2.367113        -1.684213         1.370075
 H         2.078788        -1.994915        -0.515987
 H         5.334646         0.067406         0.578012
 H         5.148984         0.241365        -1.171902
 H         4.994492         2.444474         0.617887
 H         4.070958         2.581036        -0.897017
 H         2.835339         0.327276         1.992450
