19
Iteration:   179
 C         0.075163         0.115064         0.088009
 C         1.509443        -0.013239         0.175354
 C         2.184929        -1.326509         0.213300
 C         3.277788        -0.043075        -0.104543
 C         4.667536         0.533471        -0.058229
 C         4.274082         1.995831        -0.128465
 O         2.901012         2.101825         0.660550
 C         2.576642         0.697825         0.931143
 O         2.314181         0.401850        -1.128061
 H        -0.386377        -0.372642         1.017468
 H        -0.379208         1.149338        -0.003422
 H        -0.322738        -0.393464        -0.841408
 H         2.270811        -1.682224         1.256881
 H         2.084196        -1.960770        -0.715250
 H         5.283215         0.239020         0.853799
 H         5.200307         0.163339        -0.911005
 H         4.799054         2.664249         0.570133
 H         3.946468         2.310199        -1.091934
 H         2.798109         0.368985         1.976766
