19
Iteration:  3003charge 0 multiplicity 1
 C        -0.064305         0.009806         0.025928
 C         1.427994         0.105005         0.117482
 C         2.349643        -1.324457         0.304243
 C         3.224210        -0.095143        -0.093878
 C         4.635950         0.491564        -0.299811
 C         4.331988         1.996993         0.022786
 O         3.009388         2.134102         0.657398
 C         2.604877         0.814337         1.016578
 O         2.231702         0.367772        -1.102883
 H        -0.519053        -0.113433         1.039832
 H        -0.541295         0.798993        -0.522165
 H        -0.337920        -0.930328        -0.483964
 H         2.417583        -1.680241         1.339598
 H         2.321138        -2.108081        -0.411214
 H         5.176726         0.043188         0.414492
 H         5.003891         0.386634        -1.262234
 H         5.043604         2.524625         0.673840
 H         4.202175         2.683581        -0.877696
 H         2.773969         0.448090         2.128846
