19
Iteration:  3273
 C        -0.026529         0.261184         0.045112
 C         1.500169        -0.012915         0.025771
 C         2.310213        -1.342205         0.322643
 C         3.324196        -0.131038        -0.055287
 C         4.566962         0.573704        -0.330511
 C         4.189984         2.084227         0.021703
 O         2.895865         2.117751         0.676998
 C         2.607955         0.777622         1.024886
 O         2.361451         0.137653        -1.102958
 H        -0.442816         0.017384         1.074823
 H        -0.168545         1.324415         0.012984
 H        -0.621443        -0.178982        -0.751106
 H         2.405982        -1.617419         1.434700
 H         2.394106        -2.160024        -0.376315
 H         5.419132         0.188550         0.253969
 H         4.968729         0.488828        -1.302148
 H         4.986644         2.435128         0.642947
 H         4.150778         2.543855        -0.920644
 H         2.636434         0.391753         2.125068
