19
Iteration:   525
 C         0.045213         0.299441        -0.049287
 C         1.530280        -0.048309         0.053516
 C         2.449400        -1.366248         0.226355
 C         3.287579        -0.110281         0.038554
 C         4.638773         0.533010        -0.313438
 C         4.263300         1.994512         0.045272
 O         2.861025         2.079524         0.739733
 C         2.535857         0.739769         1.066192
 O         2.192471         0.355367        -1.124989
 H        -0.421244        -0.420426         0.646430
 H        -0.336810         1.333426         0.029235
 H        -0.369523        -0.048085        -1.004491
 H         2.713848        -1.543542         1.291390
 H         2.257483        -2.255269        -0.300374
 H         5.442029         0.002970         0.268910
 H         4.570272         0.247243        -1.302236
 H         5.033271         2.453699         0.578815
 H         4.073758         2.420137        -0.925640
 H         2.695077         0.404313         2.113052
