19
Iteration:   225
 C         0.056102         0.280473         0.016945
 C         1.457067        -0.091124         0.046898
 C         2.434490        -1.367799         0.298849
 C         3.212133        -0.087956        -0.017506
 C         4.614493         0.509309        -0.304899
 C         4.222604         2.113015         0.068179
 O         2.904056         2.101896         0.769349
 C         2.536008         0.771998         0.984687
 O         2.319039         0.201591        -1.178814
 H        -0.381985         0.356680         1.053977
 H         0.074009         1.305804        -0.481527
 H        -0.744710        -0.219055        -0.588637
 H         2.495070        -1.871301         1.304288
 H         2.216512        -1.953089        -0.596795
 H         5.366555         0.008279         0.349343
 H         4.813342         0.385398        -1.417963
 H         4.992118         2.544081         0.696862
 H         4.001445         2.592296        -0.887258
 H         2.725508         0.506153         2.037396
