19
Iteration:  3790
 C         0.105296         0.261575         0.006754
 C         1.551255        -0.056407         0.119899
 C         2.385964        -1.307641         0.252483
 C         3.282537        -0.126240        -0.004332
 C         4.598603         0.444457        -0.387056
 C         4.210063         2.040538         0.114489
 O         2.789419         2.116297         0.549216
 C         2.576905         0.827872         1.042221
 O         2.258289         0.217765        -1.035057
 H        -0.170389        -0.088710         1.024659
 H         0.021766         1.310106        -0.181405
 H        -0.375017        -0.284025        -0.761534
 H         2.423136        -1.679826         1.210973
 H         2.209886        -2.046333        -0.515700
 H         5.447690         0.068310         0.205613
 H         4.933236         0.367610        -1.493504
 H         4.676005         2.302263         1.047409
 H         4.477926         2.879287        -0.629106
 H         2.579829         0.862704         2.163259
