19
Iteration:   442
 C        -0.093844         0.076972         0.040942
 C         1.439356        -0.007378        -0.014288
 C         2.416182        -1.291527         0.231101
 C         3.237923        -0.032364        -0.061365
 C         4.605134         0.517419        -0.188946
 C         4.280964         1.954988        -0.040980
 O         3.045166         2.062275         0.822744
 C         2.512567         0.791102         1.027395
 O         2.284880         0.420489        -1.181824
 H        -0.540932         0.098268         1.021412
 H        -0.441122         0.997121        -0.467967
 H        -0.440851        -0.786692        -0.513619
 H         2.462263        -1.722888         1.261536
 H         2.310606        -2.071667        -0.514306
 H         5.118886         0.062385         0.635135
 H         5.280695         0.310609        -1.036442
 H         5.149801         2.554142         0.421843
 H         4.005222         2.451931        -0.973111
 H         2.559746         0.330781         2.018589
