19
Iteration:  4578charge 0 multiplicity 1
 C        -0.006607        -0.072279        -0.173208
 C         1.430269         0.018060         0.198407
 C         2.389463        -1.156406         0.511950
 C         3.258340        -0.080767        -0.073850
 C         4.526304         0.464313        -0.375206
 C         4.367666         2.009891         0.161917
 O         2.930291         2.113984         0.525180
 C         2.661059         0.921170         0.962350
 O         2.187091         0.316715        -1.035071
 H        -0.621835         0.091252         0.770800
 H        -0.201236         0.715129        -0.955635
 H        -0.217906        -1.055509        -0.667268
 H         2.482499        -1.524768         1.516190
 H         2.207637        -2.107064        -0.116203
 H         5.421286        -0.115636        -0.054156
 H         4.767269         0.523985        -1.424855
 H         4.974871         1.959750         1.041217
 H         4.562139         2.863064        -0.449003
 H         2.745854         0.570977         1.982186
