19
Iteration:  3723charge 0 multiplicity 1
 C         0.020963        -0.039396         0.118425
 C         1.497614         0.090448         0.067276
 C         2.295523        -1.218956         0.325741
 C         3.236307        -0.075648        -0.094578
 C         4.565538         0.481834        -0.214823
 C         4.422485         1.990975         0.080084
 O         3.004325         2.181389         0.743045
 C         2.455856         0.932786         0.879479
 O         2.242936         0.214430        -1.248175
 H        -0.242108        -0.507631         1.116769
 H        -0.623316         0.768762        -0.088657
 H        -0.165839        -0.798696        -0.595905
 H         2.408155        -1.522718         1.345002
 H         2.068483        -1.973687        -0.314559
 H         5.344335        -0.107196         0.280062
 H         4.820969         0.304065        -1.337183
 H         5.235320         2.398974         0.683010
 H         4.353600         2.598462        -0.885390
 H         2.434800         0.622618         1.969364
