19
Iteration:  1256
 C         0.028971         0.191853        -0.040724
 C         1.448167         0.003917         0.077810
 C         2.474779        -1.366746         0.342026
 C         3.244761        -0.088672        -0.047195
 C         4.679412         0.485080        -0.203670
 C         4.209158         2.042625        -0.072382
 O         2.999731         2.121835         0.727491
 C         2.538781         0.784960         0.986153
 O         2.143863         0.300159        -1.115566
 H        -0.546911        -0.250231         0.804568
 H        -0.203814         1.265550         0.118280
 H        -0.514390        -0.082335        -0.989726
 H         2.558901        -1.982665         1.300780
 H         2.535191        -2.102592        -0.528505
 H         5.161563         0.112836         0.685041
 H         5.115347         0.205906        -1.115978
 H         4.998037         2.710645         0.453948
 H         3.990790         2.387419        -1.077346
 H         2.639163         0.402117         2.088424
