19
Iteration:  4251
 C        -0.048259         0.051624        -0.106321
 C         1.463925         0.032798         0.122257
 C         2.396669        -1.282947         0.395918
 C         3.234495        -0.063534         0.079535
 C         4.544233         0.535855        -0.405701
 C         4.308928         1.991987         0.027557
 O         2.975299         2.074400         0.612499
 C         2.546316         0.857849         1.008536
 O         2.310280         0.319302        -1.037936
 H        -0.402937        -0.079286         0.936551
 H        -0.321144         1.009294        -0.509386
 H        -0.307830        -0.756933        -0.790645
 H         2.476616        -1.853385         1.402971
 H         2.193345        -2.020415        -0.351072
 H         5.440941         0.104416         0.082100
 H         4.634647         0.484863        -1.446015
 H         5.096311         2.157103         0.848864
 H         4.271910         2.682954        -0.901165
 H         2.515976         0.545662         2.109860
