19
Iteration:  2139
 C         0.016760         0.042440         0.083741
 C         1.466192        -0.007468         0.093183
 C         2.268411        -1.270777         0.348814
 C         3.258931        -0.038097         0.022747
 C         4.598658         0.623628        -0.382427
 C         4.294302         1.984039         0.082471
 O         2.991066         2.072994         0.571307
 C         2.562675         0.772891         0.959890
 O         2.276358         0.338476        -1.104342
 H        -0.126198        -0.289509         1.085076
 H        -0.484895         0.965379        -0.135792
 H        -0.299253        -0.686625        -0.788945
 H         2.160953        -1.695101         1.384491
 H         2.157446        -2.066131        -0.519354
 H         5.344725         0.119616         0.266438
 H         4.904754         0.289252        -1.416901
 H         5.121357         2.429014         0.843593
 H         4.390698         2.660793        -0.708923
 H         2.482638         0.467837         2.047963
