19
Iteration:  4195charge 0 multiplicity 1
 C        -0.100271         0.049633         0.033701
 C         1.398360         0.050470         0.069939
 C         2.261076        -1.328591         0.310115
 C         3.295073        -0.112113        -0.041264
 C         4.639357         0.551472        -0.163789
 C         4.269107         2.075346        -0.138813
 O         3.097380         2.129277         0.776562
 C         2.564975         0.753510         0.942368
 O         2.308433         0.275640        -1.170829
 H        -0.491131         0.003981         1.048455
 H        -0.544527         0.925614        -0.445056
 H        -0.445473        -0.849119        -0.520624
 H         2.463202        -1.582973         1.392473
 H         2.212343        -2.089157        -0.435076
 H         5.267696         0.357702         0.691539
 H         5.339016         0.443349        -0.957184
 H         5.005465         2.754005         0.398547
 H         3.755704         2.584366        -1.021721
 H         2.540646         0.548312         2.041038
