19
Iteration:  1817charge 0 multiplicity 1
 C        -0.057664         0.022736         0.030509
 C         1.450296         0.036878         0.107249
 C         2.388316        -1.266522         0.264203
 C         3.255276        -0.054142        -0.143178
 C         4.714755         0.510643        -0.191698
 C         4.220999         1.979345        -0.107197
 O         3.058640         2.021133         0.713084
 C         2.568598         0.746129         1.014280
 O         2.162278         0.446149        -1.050842
 H        -0.456218        -0.452359         0.922575
 H        -0.277723         1.081384         0.094222
 H        -0.387250        -0.358294        -0.929256
 H         2.416372        -1.703762         1.242138
 H         2.122312        -2.021519        -0.507171
 H         5.101926         0.160450         0.770186
 H         5.340288         0.390914        -1.067456
 H         4.994391         2.713384         0.228965
 H         4.124213         2.435875        -1.145176
 H         2.522597         0.630560         2.140245
