19
Iteration:  1234
 C        -0.044438         0.245863         0.157178
 C         1.475426        -0.018980         0.021415
 C         2.395594        -1.290720         0.244933
 C         3.326713        -0.123815         0.018790
 C         4.616575         0.543838        -0.196899
 C         4.241321         2.021050        -0.035068
 O         2.973180         2.101235         0.717480
 C         2.443585         0.805218         0.903662
 O         2.340529         0.187417        -1.181637
 H        -0.523388        -0.130960         1.098672
 H        -0.309367         1.325763         0.065805
 H        -0.619989        -0.264102        -0.682430
 H         2.394993        -1.828981         1.268277
 H         2.307621        -2.114347        -0.550685
 H         5.420865         0.313881         0.480454
 H         4.915031         0.513247        -1.190691
 H         5.079234         2.472672         0.593619
 H         4.088260         2.508905        -0.990181
 H         2.297160         0.444779         1.996443
