19
Iteration:  3477charge 0 multiplicity 1
 C         0.033503         0.149234         0.021442
 C         1.465503         0.057453         0.149860
 C         2.449533        -1.270714         0.285177
 C         3.261996        -0.045900        -0.045449
 C         4.538908         0.537222        -0.225685
 C         4.353292         1.988787         0.072589
 O         2.942464         2.096558         0.546678
 C         2.534960         0.817520         0.969773
 O         2.210314         0.205460        -1.110181
 H        -0.356546         0.002206         1.094282
 H        -0.427944         1.041491        -0.352682
 H        -0.406454        -0.694008        -0.508988
 H         2.523540        -1.823077         1.217413
 H         2.212777        -1.868842        -0.543053
 H         5.205311        -0.127218         0.545561
 H         4.815565         0.363351        -1.262912
 H         5.006198         2.411648         0.873674
 H         4.398511         2.487784        -0.884658
 H         2.454293         0.625879         2.132786
