19
Iteration:   679charge 0 multiplicity 1
 C         0.008095         0.148968        -0.040877
 C         1.469149        -0.049938         0.067329
 C         2.351588        -1.279272         0.324508
 C         3.208707        -0.058898         0.003923
 C         4.621263         0.554422        -0.315929
 C         4.370688         2.049328         0.051536
 O         2.984098         2.047166         0.802384
 C         2.502729         0.802225         0.987721
 O         2.259576         0.259732        -1.200637
 H        -0.597061        -0.389826         0.749276
 H        -0.152028         1.270057         0.079059
 H        -0.473687        -0.087920        -1.009488
 H         2.346571        -1.536316         1.447866
 H         2.302678        -2.077237        -0.431821
 H         5.521048         0.025850         0.187529
 H         4.784329         0.416135        -1.389158
 H         5.062615         2.585401         0.684153
 H         4.130922         2.580289        -0.864484
 H         2.313901         0.350898         2.016812
