19
Iteration:  4690
 C        -0.020741         0.139554        -0.077560
 C         1.435071        -0.075522         0.123637
 C         2.364115        -1.319275         0.310442
 C         3.266299        -0.084080         0.086579
 C         4.713553         0.522561        -0.172787
 C         4.190989         2.043397        -0.219911
 O         3.046133         2.167642         0.717073
 C         2.459247         0.811276         0.963534
 O         2.277019         0.227323        -1.007843
 H        -0.714024        -0.287068         0.695995
 H        -0.215067         1.291568        -0.148106
 H        -0.345584        -0.341234        -1.047696
 H         2.554071        -1.886315         1.242153
 H         2.320137        -1.857582        -0.655863
 H         5.397748         0.505295         0.654686
 H         5.270522         0.219217        -1.067943
 H         5.029587         2.629819         0.000499
 H         3.727899         2.308486        -1.200546
 H         2.426283         0.693501         2.056387
