19
Iteration:  1989
 C        -0.126336         0.048366         0.057064
 C         1.423562         0.102691         0.167585
 C         2.373460        -1.252016         0.354353
 C         3.256841        -0.047995        -0.083125
 C         4.608479         0.586546        -0.278880
 C         4.356992         2.063691        -0.009961
 O         3.062791         2.042880         0.775334
 C         2.603887         0.787520         0.878993
 O         2.164398         0.237875        -1.176993
 H        -0.473197        -0.682409         0.800480
 H        -0.573227         1.049203         0.063452
 H        -0.314881        -0.585879        -0.899713
 H         2.832350        -1.836776         1.213637
 H         2.232200        -1.844727        -0.634271
 H         5.263892         0.326257         0.625080
 H         5.196176         0.270329        -1.199245
 H         5.162264         2.455597         0.604148
 H         4.123046         2.622035        -0.962029
 H         2.473376         0.325311         1.819121
