19
Iteration:  3559charge 0 multiplicity 1
 C        -0.089007         0.075813        -0.043045
 C         1.431478        -0.002324         0.061214
 C         2.357168        -1.333414         0.307715
 C         3.253437        -0.070323         0.088859
 C         4.634247         0.483494        -0.287427
 C         4.287153         2.004403        -0.075570
 O         3.015923         2.098016         0.601883
 C         2.573859         0.828339         1.061384
 O         2.264026         0.375868        -1.016424
 H        -0.493593        -0.277858         0.902874
 H        -0.394950         1.124366        -0.211953
 H        -0.507152        -0.564334        -0.839071
 H         2.578327        -1.675040         1.352386
 H         2.429083        -2.138784        -0.438615
 H         5.302228         0.110445         0.357382
 H         4.924373         0.078977        -1.272670
 H         4.980857         2.710020         0.450150
 H         4.102323         2.495425        -1.083972
 H         2.741551         0.778493         2.095682
