19
Iteration:   969
 C        -0.061560        -0.014368        -0.097840
 C         1.479282         0.011018         0.198689
 C         2.260416        -1.294978         0.289380
 C         3.226552        -0.103932        -0.159229
 C         4.634277         0.510004        -0.263758
 C         4.313389         1.987041         0.038194
 O         3.084800         2.126868         0.668046
 C         2.565083         0.838662         1.010406
 O         2.216419         0.384763        -1.030285
 H        -0.573690         0.095880         0.901672
 H        -0.288880         0.901075        -0.692851
 H        -0.431900        -0.902662        -0.639679
 H         2.474681        -1.691122         1.385933
 H         2.086917        -2.074353        -0.477549
 H         5.266525         0.247871         0.624246
 H         5.221504         0.427297        -1.207294
 H         5.047707         2.550607         0.621359
 H         4.274303         2.409043        -0.946455
 H         2.616419         0.704965         2.071900
