19
Iteration:  3084charge 0 multiplicity 1
 C         0.019678         0.308436         0.051773
 C         1.503486        -0.008782        -0.006860
 C         2.316623        -1.340251         0.352086
 C         3.336587        -0.058501         0.012525
 C         4.626743         0.609566        -0.219740
 C         4.121959         1.991095        -0.227723
 O         2.967945         2.030154         0.814384
 C         2.548854         0.685785         1.041128
 O         2.350326         0.234774        -1.176686
 H        -0.285547        -0.135632         1.031073
 H        -0.292443         1.419428         0.166711
 H        -0.560870        -0.221603        -0.800994
 H         2.339155        -1.709244         1.463107
 H         2.118445        -2.130644        -0.499153
 H         5.566658         0.332979         0.424280
 H         5.091445         0.332329        -1.242459
 H         4.682927         2.844377         0.219566
 H         3.588778         2.374138        -1.063969
 H         2.501213         0.452990         2.094895
