19
Iteration:   195
 C        -0.013235         0.201854         0.115483
 C         1.484850         0.001698        -0.008069
 C         2.298000        -1.323813         0.214841
 C         3.323634        -0.172621        -0.002148
 C         4.727668         0.446589        -0.185482
 C         4.123870         2.077057        -0.006234
 O         2.860904         2.043315         0.598692
 C         2.585192         0.743451         0.999080
 O         2.378632         0.405554        -1.079028
 H        -0.308784        -0.120515         1.118325
 H        -0.206948         1.276091        -0.032194
 H        -0.658633        -0.392204        -0.520964
 H         2.217622        -1.840208         1.183504
 H         2.142118        -2.055124        -0.546816
 H         5.272078         0.157270         0.691444
 H         5.269159         0.366025        -1.191831
 H         4.909684         2.672063         0.451543
 H         4.088736         2.460998        -1.059737
 H         2.606632         0.654650         2.092424
