19
Iteration:  4644charge 0 multiplicity 1
 C         0.055127         0.153643         0.153842
 C         1.566413        -0.010112         0.045628
 C         2.327872        -1.293137         0.371081
 C         3.309159        -0.115718        -0.033071
 C         4.647969         0.509565        -0.116368
 C         4.238205         2.009792        -0.007189
 O         2.832143         2.105519         0.535066
 C         2.474656         0.805462         0.871529
 O         2.327652         0.260911        -1.205652
 H        -0.228088        -0.132402         1.202549
 H        -0.103575         1.268597         0.075544
 H        -0.587457        -0.440442        -0.516013
 H         2.289109        -1.488962         1.417225
 H         2.095183        -2.110362        -0.421987
 H         5.277874         0.133778         0.730401
 H         5.290696         0.337681        -1.002504
 H         4.785805         2.496369         0.808075
 H         4.302059         2.589126        -0.914224
 H         2.410272         0.818057         1.944018
