19
Iteration:  2946charge 0 multiplicity 1
 C        -0.019082         0.232971         0.114945
 C         1.424489        -0.045133         0.152213
 C         2.469925        -1.282820         0.305206
 C         3.246385        -0.054407        -0.073794
 C         4.676169         0.563176        -0.280170
 C         4.240667         2.002292         0.110139
 O         2.947121         2.072736         0.606936
 C         2.521528         0.772932         0.899743
 O         2.216957         0.222775        -1.189423
 H        -0.558057        -0.080001         1.073415
 H        -0.178054         1.315777         0.145592
 H        -0.432258        -0.178361        -0.774295
 H         2.735809        -1.674803         1.247374
 H         2.354766        -2.072683        -0.473840
 H         5.327519         0.099083         0.405474
 H         5.009444         0.252795        -1.226642
 H         4.978521         2.251728         0.932575
 H         4.347338         2.744281        -0.727071
 H         2.585712         0.396031         2.003334
