19
Iteration:  1226charge 0 multiplicity 1
 C        -0.036757         0.200152         0.159512
 C         1.415838        -0.014026         0.054782
 C         2.315779        -1.276807         0.291833
 C         3.291300        -0.125566        -0.038298
 C         4.624337         0.574135        -0.203534
 C         4.206531         1.989765        -0.014769
 O         2.929059         2.128958         0.707415
 C         2.531389         0.735636         0.915423
 O         2.447649         0.223590        -1.219547
 H        -0.438270         0.071644         1.182408
 H        -0.332282         1.258680         0.040237
 H        -0.648307        -0.314274        -0.589359
 H         2.086233        -1.648104         1.355769
 H         2.454064        -2.007749        -0.508201
 H         5.383281         0.227951         0.521586
 H         4.905129         0.345182        -1.309346
 H         4.986762         2.422105         0.530696
 H         4.223915         2.638469        -0.921637
 H         2.697265         0.414368         1.941659
