19
Iteration:  2754
 C         0.049959         0.219929         0.096917
 C         1.456051        -0.055356         0.039681
 C         2.422755        -1.296417         0.392111
 C         3.258898        -0.166964        -0.172157
 C         4.595900         0.622454        -0.319035
 C         4.240676         2.093176         0.114236
 O         2.950696         2.123555         0.665079
 C         2.576443         0.742733         0.917009
 O         2.205214         0.163452        -1.164107
 H        -0.613988        -0.163211         0.909684
 H        -0.039193         1.277816         0.102180
 H        -0.335846        -0.088491        -0.849324
 H         2.354254        -1.744279         1.328746
 H         2.172377        -2.160399        -0.292570
 H         4.977820         0.108370         0.661364
 H         5.530601         0.551975        -0.904231
 H         4.923769         2.383780         0.848736
 H         4.142953         2.844900        -0.704374
 H         2.703851         0.529366         2.081773
