19
Iteration:   945charge 0 multiplicity 1
 C        -0.073923         0.037600         0.062378
 C         1.507739         0.092154         0.095364
 C         2.229610        -1.236941         0.222613
 C         3.324260        -0.101906         0.027765
 C         4.638485         0.413739        -0.209861
 C         4.314828         2.027612        -0.010462
 O         2.950673         2.096769         0.644079
 C         2.557400         0.779487         0.987392
 O         2.300578         0.380363        -1.123893
 H        -0.486216        -0.272661         1.060799
 H        -0.564716         0.946045        -0.338782
 H        -0.233468        -0.780213        -0.701564
 H         2.166282        -1.786456         1.302865
 H         2.469276        -1.920535        -0.592686
 H         5.386151         0.209174         0.543011
 H         5.046276         0.270458        -1.269366
 H         5.077349         2.586622         0.564511
 H         4.129158         2.512175        -1.011174
 H         2.531922         0.518599         2.051165
