19
Iteration:  3804charge 0 multiplicity 1
 C         0.072448         0.238928         0.041853
 C         1.540340        -0.030635         0.149684
 C         2.287479        -1.341327         0.369127
 C         3.278229        -0.125453        -0.014156
 C         4.577613         0.590887        -0.388742
 C         4.252267         2.062288         0.106173
 O         2.845891         2.106096         0.584910
 C         2.526240         0.754358         0.991702
 O         2.378866         0.203324        -1.124376
 H        -0.547647         0.172562         0.929048
 H        -0.039770         1.333065        -0.280801
 H        -0.419151        -0.423916        -0.753769
 H         2.308451        -1.906921         1.317894
 H         2.241297        -2.075764        -0.533012
 H         5.407091         0.167368         0.136422
 H         4.582204         0.534056        -1.411675
 H         5.075488         2.284018         0.911451
 H         4.247093         2.768086        -0.751513
 H         2.655949         0.456717         2.032950
