19
Iteration:    12
 C         0.030779         0.199184         0.097049
 C         1.478515        -0.047983         0.055897
 C         2.216815        -1.396376         0.275865
 C         3.253475        -0.163964        -0.105014
 C         4.619709         0.600660        -0.176365
 C         4.222704         2.074049        -0.102141
 O         3.026542         2.081815         0.709078
 C         2.489510         0.759659         1.048700
 O         2.358079         0.342631        -1.187437
 H        -0.246970        -0.058385         1.130689
 H        -0.334056         1.165916        -0.199334
 H        -0.417421        -0.587348        -0.523085
 H         2.391665        -1.678295         1.315525
 H         2.103017        -2.235417        -0.384892
 H         5.126196         0.290615         0.761650
 H         5.254238         0.407441        -1.027303
 H         4.912935         2.646916         0.507322
 H         4.059175         2.582680        -1.053552
 H         2.783259         0.424735         2.026251
