19
Iteration:   249
 C         0.012263         0.219607        -0.110201
 C         1.458545         0.026855         0.144334
 C         2.373790        -1.355820         0.411591
 C         3.267579        -0.105858        -0.144579
 C         4.642668         0.689011        -0.340509
 C         4.250597         2.070150         0.081018
 O         3.011983         2.033164         0.834150
 C         2.569424         0.704798         0.910501
 O         2.167317         0.189207        -1.134801
 H        -0.677262         0.305704         0.752666
 H        -0.094340         1.127715        -0.734156
 H        -0.408439        -0.533013        -0.807676
 H         2.580910        -1.489252         1.487180
 H         2.075768        -2.219400        -0.167703
 H         5.291621         0.271829         0.428186
 H         5.111363         0.534811        -1.374213
 H         5.030926         2.366850         0.720875
 H         4.084033         2.734576        -0.801918
 H         2.758345         0.403231         1.919331
