19
Iteration:  2623
 C         0.014840         0.225308        -0.020920
 C         1.497559         0.020221         0.109002
 C         2.380171        -1.332510         0.380742
 C         3.305204        -0.065559        -0.012490
 C         4.638448         0.561936        -0.297129
 C         4.137834         2.078532        -0.114966
 O         2.990625         2.064602         0.847778
 C         2.530013         0.715554         0.923143
 O         2.294651         0.204084        -1.139693
 H        -0.494007         0.070708         1.015459
 H        -0.259494         1.216440        -0.413278
 H        -0.501277        -0.554482        -0.615739
 H         2.200691        -1.790457         1.331725
 H         2.219293        -1.963189        -0.564363
 H         5.328141         0.415232         0.589804
 H         5.055073         0.324391        -1.280070
 H         5.039474         2.823912         0.237632
 H         3.712231         2.473974        -1.072749
 H         2.614239         0.290671         1.874020
