19
Iteration:  4055charge 0 multiplicity 1
 C        -0.056067        -0.031491         0.038782
 C         1.453628         0.050978         0.026174
 C         2.301778        -1.243718         0.272102
 C         3.251839        -0.054477        -0.148783
 C         4.634726         0.524504        -0.214563
 C         4.217538         2.089708         0.021710
 O         3.165931         2.153490         0.865180
 C         2.471415         0.889872         0.940363
 O         2.252243         0.181137        -1.211092
 H        -0.259648        -0.197878         1.102919
 H        -0.608698         0.834406        -0.253023
 H        -0.376447        -0.930994        -0.499579
 H         2.356709        -1.417244         1.372134
 H         2.070584        -1.984397        -0.456304
 H         5.228663         0.082059         0.761105
 H         5.392027         0.255289        -0.981653
 H         5.229705         2.343867         0.332473
 H         4.068976         2.445185        -1.026154
 H         2.434264         0.569306         1.984163
