19
Iteration:  2635
 C         0.016697         0.170197        -0.036603
 C         1.449887        -0.111237         0.063170
 C         2.346789        -1.265616         0.350052
 C         3.259060        -0.064499        -0.093998
 C         4.624993         0.595419        -0.253323
 C         4.139268         2.044134        -0.114327
 O         3.078476         2.094624         0.866943
 C         2.560608         0.813641         1.012096
 O         2.209648         0.180139        -1.164340
 H        -0.466907         0.238374         1.016214
 H        -0.049329         1.164188        -0.486927
 H        -0.473039        -0.567785        -0.753036
 H         2.688813        -1.597080         1.324101
 H         2.388160        -2.156629        -0.349367
 H         5.304992         0.197369         0.556372
 H         5.181039         0.426811        -1.191162
 H         4.930677         2.657790         0.566712
 H         3.948991         2.554436        -1.049153
 H         2.688039         0.548776         2.036136
