19
Iteration:  4499charge 0 multiplicity 1
 C        -0.066419         0.170926         0.147748
 C         1.483024        -0.034836         0.054489
 C         2.353503        -1.333989         0.412514
 C         3.352421        -0.094104        -0.110404
 C         4.680565         0.514041        -0.122250
 C         4.284316         2.110943         0.117492
 O         2.889463         2.148283         0.527400
 C         2.583938         0.792188         0.830509
 O         2.196978         0.172595        -1.244591
 H        -0.478864        -0.249354         1.081620
 H        -0.097163         1.227318         0.207226
 H        -0.564654        -0.285295        -0.730008
 H         2.669664        -1.478418         1.492561
 H         2.137030        -2.165552        -0.183713
 H         5.116744         0.025594         0.841431
 H         5.483556         0.535955        -0.978568
 H         4.883643         2.697057         0.789856
 H         4.214036         2.637121        -0.850799
 H         2.713236         0.467514         1.861249
