19
Iteration:   696
 C        -0.008049         0.267898        -0.078955
 C         1.406007        -0.082442         0.037851
 C         2.425841        -1.395991         0.338175
 C         3.295382        -0.067047        -0.064704
 C         4.557996         0.538754        -0.349509
 C         4.234844         2.015290         0.105418
 O         3.025235         2.199866         0.799424
 C         2.492683         0.755840         0.917767
 O         2.240509         0.189559        -1.075187
 H        -0.574797        -0.248593         0.679481
 H        -0.110755         1.273785         0.271607
 H        -0.277652        -0.023587        -1.097166
 H         2.503462        -1.867109         1.297712
 H         2.411513        -2.069173        -0.499951
 H         5.320501         0.204994         0.308585
 H         4.926993         0.585796        -1.426219
 H         5.124981         2.238918         0.775854
 H         4.461590         2.731663        -0.739251
 H         2.622615         0.603766         2.006332
