19
Iteration:  4481charge 0 multiplicity 1
 C         0.044642         0.241413         0.106349
 C         1.433557        -0.073144         0.129665
 C         2.404688        -1.322429         0.267607
 C         3.263334        -0.104123        -0.050405
 C         4.643945         0.616160        -0.093628
 C         4.278541         2.077702        -0.039209
 O         2.884381         2.081908         0.521793
 C         2.520603         0.809384         0.918372
 O         2.251130         0.155453        -1.109711
 H        -0.443054        -0.268465         1.015443
 H        -0.138264         1.357726         0.171534
 H        -0.480168        -0.234695        -0.781330
 H         2.359190        -1.838965         1.213444
 H         2.481854        -1.989161        -0.651813
 H         5.261564         0.435233         0.739627
 H         5.198931         0.322813        -0.896912
 H         4.971512         2.420261         0.747250
 H         4.441374         2.510201        -1.013640
 H         2.622974         0.595187         2.023772
