19
Iteration:     2
 C         0.001096         0.172730         0.013752
 C         1.472344         0.007242         0.094363
 C         2.334779        -1.298218         0.285827
 C         3.277272        -0.110980        -0.048464
 C         4.622828         0.523669        -0.241875
 C         4.197543         2.014999        -0.074743
 O         3.001867         2.068905         0.737019
 C         2.539090         0.764760         0.985326
 O         2.297345         0.320666        -1.096923
 H        -0.469164        -0.118489         0.971510
 H        -0.280839         1.204695        -0.227917
 H        -0.416700        -0.492229        -0.777042
 H         2.434071        -1.751369         1.291172
 H         2.214604        -2.045896        -0.488222
 H         5.315602         0.186122         0.590095
 H         5.072826         0.355297        -1.196906
 H         4.932425         2.630864         0.444345
 H         3.979148         2.477850        -1.013793
 H         2.615623         0.482016         2.030699
