19
Iteration:  3956charge 0 multiplicity 1
 C        -0.000238         0.310755        -0.050829
 C         1.435261        -0.073519         0.070744
 C         2.399584        -1.338869         0.520733
 C         3.250393        -0.163949        -0.119517
 C         4.696016         0.694571        -0.325201
 C         4.205443         2.130799        -0.024739
 O         2.957405         2.020895         0.804931
 C         2.467691         0.689151         0.890795
 O         2.279745         0.164680        -1.143095
 H        -0.561968        -0.124305         0.719492
 H        -0.102680         1.415395        -0.060519
 H        -0.430561        -0.043582        -1.019035
 H         2.438727        -1.474681         1.560474
 H         2.348985        -2.290960        -0.115321
 H         5.502711         0.409262         0.479206
 H         5.193422         0.554864        -1.290454
 H         4.938537         2.627810         0.633834
 H         4.297875         2.696499        -0.950421
 H         2.648078         0.314494         1.943640
