19
Iteration:  3385charge 0 multiplicity 1
 C        -0.091926         0.112448        -0.049837
 C         1.462901        -0.040617         0.160476
 C         2.370901        -1.297292         0.359276
 C         3.282864        -0.037792        -0.108656
 C         4.580752         0.550101        -0.151979
 C         4.223996         2.023675        -0.104618
 O         3.111568         2.087035         0.737839
 C         2.519997         0.799147         0.920902
 O         2.263661         0.266703        -1.104011
 H        -0.567239        -0.184187         0.830235
 H        -0.340781         1.200546        -0.254201
 H        -0.484873        -0.513070        -0.882435
 H         2.445767        -1.488325         1.403425
 H         2.343097        -2.161796        -0.407544
 H         5.241640         0.274953         0.660460
 H         5.198754         0.449763        -1.119445
 H         4.971578         2.478969         0.394551
 H         3.945038         2.453169        -1.091655
 H         2.575584         0.564993         2.054466
