19
Iteration:  2671
 C        -0.062146        -0.015523        -0.014571
 C         1.371461         0.052005         0.112210
 C         2.380116        -1.204472         0.302877
 C         3.230301        -0.063834        -0.038364
 C         4.699580         0.512318        -0.297226
 C         4.267351         2.000168        -0.000135
 O         3.039142         2.096462         0.725989
 C         2.550317         0.842214         0.985369
 O         2.234792         0.287777        -1.103389
 H        -0.507751        -0.147931         0.946477
 H        -0.396796         0.906071        -0.541931
 H        -0.260515        -0.940334        -0.717673
 H         2.676733        -1.601987         1.368855
 H         2.212781        -1.904609        -0.459790
 H         5.448514         0.284551         0.437797
 H         4.964153         0.304423        -1.359552
 H         5.143270         2.354649         0.583036
 H         4.198313         2.621477        -0.859931
 H         2.415133         0.557171         2.075717
