19
Iteration:  2729
 C        -0.025217         0.148254         0.123727
 C         1.427473        -0.015902         0.110333
 C         2.479049        -1.271622         0.336834
 C         3.210454         0.000824        -0.085950
 C         4.679846         0.513408        -0.196821
 C         4.363571         2.005928         0.128491
 O         2.897530         2.105977         0.594131
 C         2.506134         0.776661         0.864905
 O         2.211622         0.238336        -1.176059
 H        -0.602854        -0.381184         0.919142
 H        -0.326863         1.217895         0.117428
 H        -0.348610        -0.274105        -0.811472
 H         2.605244        -1.901272         1.264175
 H         2.437153        -2.009139        -0.560096
 H         5.438150        -0.029552         0.396917
 H         5.062461         0.495070        -1.204118
 H         4.960026         2.591232         0.743417
 H         4.130412         2.492272        -0.877835
 H         2.719555         0.452848         1.975103
