19
Iteration:  1908
 C         0.063069         0.169734         0.108370
 C         1.468121        -0.070840         0.180234
 C         2.360021        -1.265797         0.301092
 C         3.274898        -0.040244        -0.190462
 C         4.646331         0.540918        -0.356955
 C         4.323368         2.101326         0.128120
 O         2.875682         2.075840         0.668980
 C         2.576125         0.717663         0.880306
 O         2.174545         0.212238        -1.092018
 H        -0.435118         0.460750         1.036417
 H        -0.057018         1.108936        -0.483438
 H        -0.460529        -0.452310        -0.534926
 H         2.443930        -1.718527         1.243679
 H         2.197041        -1.968793        -0.415376
 H         5.366224         0.060092         0.292059
 H         5.005347         0.579040        -1.392652
 H         4.845213         2.429221         1.133799
 H         4.620396         2.899130        -0.540509
 H         2.642958         0.206269         1.851889
