19
Iteration:  1194
 C         0.035216         0.171802         0.072911
 C         1.503617         0.084429         0.089016
 C         2.301586        -1.290637         0.301858
 C         3.298880        -0.210341        -0.108267
 C         4.696599         0.561990        -0.190883
 C         4.239375         2.005991         0.026697
 O         2.930502         2.083902         0.607378
 C         2.541169         0.700084         0.944568
 O         2.196157         0.350141        -1.091153
 H        -0.359024         0.151757         1.086426
 H        -0.132813         1.018918        -0.578444
 H        -0.249225        -0.758829        -0.396096
 H         2.274161        -1.635466         1.348238
 H         2.163390        -2.078979        -0.400725
 H         5.450307         0.136518         0.513498
 H         5.239811         0.351997        -1.205823
 H         4.913630         2.445195         0.727895
 H         4.224409         2.585778        -0.942550
 H         2.568469         0.612391         1.987403
