19
Iteration:  2901charge 0 multiplicity 1
 C        -0.016934         0.177028         0.072975
 C         1.456684        -0.036119         0.121151
 C         2.361192        -1.312113         0.319318
 C         3.305242        -0.110397        -0.015422
 C         4.595258         0.541049        -0.339181
 C         4.263815         2.031132        -0.017311
 O         2.919217         2.017735         0.653159
 C         2.563215         0.776762         0.999638
 O         2.319951         0.343822        -1.114195
 H        -0.663587        -0.181441         0.899993
 H        -0.364034         1.239067        -0.016132
 H        -0.280234        -0.341134        -0.844082
 H         2.229635        -1.789330         1.262503
 H         2.256282        -2.000625        -0.545883
 H         5.466055         0.318488         0.325581
 H         5.001930         0.498662        -1.368826
 H         5.017138         2.483811         0.729946
 H         4.229559         2.750383        -0.862223
 H         2.462714         0.477405         2.135264
