19
Iteration:  1861charge 0 multiplicity 1
 C        -0.017367         0.129615         0.044293
 C         1.453725        -0.071209         0.094705
 C         2.358457        -1.271335         0.251345
 C         3.277612        -0.091312        -0.033162
 C         4.637882         0.541573        -0.444666
 C         4.287351         2.008802         0.086499
 O         3.005004         2.090451         0.719373
 C         2.444766         0.867167         1.006236
 O         2.289008         0.273070        -1.061044
 H        -0.252170        -0.188894         1.084914
 H        -0.437870         1.150967        -0.092563
 H        -0.443609        -0.513628        -0.733358
 H         2.502942        -1.736143         1.242274
 H         2.314162        -2.090613        -0.510817
 H         5.387034         0.032909         0.172642
 H         4.781950         0.435057        -1.554615
 H         5.145393         2.570324         0.611165
 H         4.201050         2.743983        -0.842078
 H         2.311355         0.472518         2.063472
