19
Iteration:   108
 C        -0.007107         0.109247        -0.161683
 C         1.458753         0.140750         0.127980
 C         2.272685        -1.282085         0.416722
 C         3.297355        -0.176509        -0.005991
 C         4.578514         0.502440        -0.394833
 C         4.226886         2.074081        -0.064600
 O         3.041824         2.104888         0.856305
 C         2.579132         0.754353         0.981101
 O         2.287939         0.271239        -1.045058
 H        -0.374069        -0.508928         0.638135
 H        -0.653389         0.956480        -0.357631
 H        -0.009004        -0.542389        -1.001656
 H         2.305719        -1.761871         1.389047
 H         2.100663        -1.933323        -0.422072
 H         5.524967         0.280630         0.018660
 H         4.768603         0.525991        -1.535056
 H         5.098640         2.481381         0.486639
 H         3.830012         2.732724        -0.945699
 H         2.782063         0.338689         2.013022
