19
Iteration:  2799charge 0 multiplicity 1
 C         0.024092         0.182084         0.002577
 C         1.519444        -0.002723         0.091194
 C         2.344457        -1.364689         0.286427
 C         3.318303        -0.043922         0.045108
 C         4.561053         0.541334        -0.380308
 C         4.167035         2.024477        -0.084282
 O         2.939730         2.042980         0.726517
 C         2.516005         0.777614         0.993829
 O         2.372789         0.347470        -1.026739
 H        -0.352749         0.087865         1.004755
 H        -0.292873         1.172646        -0.302626
 H        -0.502496        -0.613051        -0.595097
 H         2.305370        -2.046024         1.100131
 H         2.509853        -1.974844        -0.551879
 H         5.314427         0.154916         0.418268
 H         4.888370         0.181151        -1.402635
 H         4.928951         2.440317         0.584283
 H         3.965084         2.493294        -1.009612
 H         2.357642         0.542335         2.141703
