19
Iteration:  3660charge 0 multiplicity 1
 C         0.033664         0.171731        -0.060627
 C         1.501998         0.021005         0.212618
 C         2.372749        -1.253537         0.307586
 C         3.280854        -0.091269        -0.042866
 C         4.552366         0.491879        -0.254390
 C         4.154709         1.946351        -0.153043
 O         2.975410         2.083212         0.741798
 C         2.590423         0.798943         0.977096
 O         2.296741         0.279977        -1.048903
 H        -0.679413         0.201718         0.863822
 H        -0.127812         1.072028        -0.620818
 H        -0.155156        -0.732630        -0.631058
 H         2.496652        -1.771358         1.332361
 H         2.114473        -1.905900        -0.569504
 H         5.093739         0.376341         0.599748
 H         5.007365         0.323206        -1.169885
 H         5.021819         2.443335         0.352174
 H         3.849069         2.578534        -1.057031
 H         2.708185         0.632448         2.017474
