19
Iteration:  1306charge 0 multiplicity 1
 C         0.044290         0.061541        -0.028845
 C         1.462608         0.042708         0.000763
 C         2.244118        -1.254787         0.224121
 C         3.334747        -0.170827         0.130305
 C         4.598246         0.550053        -0.283809
 C         4.183598         1.983395        -0.154922
 O         3.044947         2.143127         0.842823
 C         2.585305         0.804010         1.011048
 O         2.299045         0.353049        -1.066747
 H        -0.332806        -0.472813         0.831902
 H        -0.477501         1.012933        -0.142522
 H        -0.349192        -0.555349        -0.835893
 H         2.148743        -1.719866         1.204639
 H         2.189852        -2.089624        -0.483303
 H         5.429355         0.211588         0.443258
 H         4.774732         0.162910        -1.326638
 H         5.007347         2.560699         0.232143
 H         3.764020         2.206770        -1.118651
 H         2.437403         0.611871         2.037166
