19
Iteration:  4483
 C         0.033316         0.237922         0.118088
 C         1.440689        -0.084166         0.119904
 C         2.408551        -1.312895         0.284120
 C         3.255805        -0.116604        -0.070367
 C         4.653111         0.627500        -0.081326
 C         4.263645         2.085147        -0.021113
 O         2.895556         2.097456         0.517155
 C         2.540940         0.793367         0.923915
 O         2.235782         0.150842        -1.138654
 H        -0.440514        -0.248518         0.974283
 H        -0.211097         1.341172         0.152760
 H        -0.479423        -0.186395        -0.737132
 H         2.277776        -1.811608         1.225118
 H         2.493232        -2.045130        -0.613554
 H         5.264119         0.424037         0.760238
 H         5.202879         0.269201        -0.897193
 H         4.993473         2.412355         0.798671
 H         4.476674         2.520532        -1.016194
 H         2.684617         0.635961         2.042682
