19
Iteration:   227charge 0 multiplicity 1
 C         0.053038         0.284617         0.002688
 C         1.460055        -0.112965         0.044767
 C         2.426638        -1.356663         0.309054
 C         3.220360        -0.107619        -0.041895
 C         4.599690         0.504609        -0.301991
 C         4.226982         2.114415         0.071903
 O         2.912242         2.120965         0.778473
 C         2.556284         0.765916         0.994676
 O         2.300158         0.196194        -1.173965
 H        -0.352761         0.402963         1.028981
 H         0.046863         1.288354        -0.472370
 H        -0.688337        -0.245510        -0.626718
 H         2.469359        -1.823986         1.313956
 H         2.267611        -1.930629        -0.575705
 H         5.362781         0.005010         0.297727
 H         4.889328         0.427084        -1.428446
 H         4.937958         2.569285         0.713085
 H         3.975150         2.648521        -0.868287
 H         2.698764         0.521424         2.031896
