19
Iteration:  2699
 C         0.030223        -0.029124         0.071330
 C         1.419580         0.034033         0.043989
 C         2.245754        -1.342178         0.310452
 C         3.188209        -0.113300         0.017861
 C         4.623334         0.482515        -0.275700
 C         4.304955         2.028411         0.032909
 O         2.935245         2.167795         0.581353
 C         2.575585         0.823437         0.932475
 O         2.360651         0.439385        -1.055596
 H        -0.237152        -0.508893         1.066955
 H        -0.459826         0.883843        -0.184930
 H        -0.287984        -0.789657        -0.592384
 H         2.270069        -1.813941         1.239826
 H         2.165978        -2.129905        -0.522352
 H         5.571342         0.191836         0.319746
 H         4.875864         0.198062        -1.302956
 H         5.124925         2.382359         0.760755
 H         4.406518         2.812968        -0.767919
 H         2.703436         0.516918         2.002599
