19
Iteration:  3873charge 0 multiplicity 1
 C        -0.095913        -0.029035        -0.012393
 C         1.393673         0.025404         0.065419
 C         2.356684        -1.286899         0.229948
 C         3.271214        -0.068379        -0.003247
 C         4.691720         0.470420        -0.163904
 C         4.311492         2.021577        -0.148053
 O         3.057276         2.130851         0.744318
 C         2.544118         0.824741         1.030673
 O         2.244095         0.411182        -1.095051
 H        -0.584520        -0.210947         1.004123
 H        -0.594658         0.844249        -0.439102
 H        -0.281922        -0.937509        -0.616551
 H         2.379075        -1.905831         1.244723
 H         2.122924        -1.926965        -0.579761
 H         5.077634         0.204634         0.822313
 H         5.315647         0.153920        -1.006660
 H         5.000010         2.810183         0.308070
 H         4.055516         2.177085        -1.184397
 H         2.539551         0.686662         2.113198
