19
Iteration:   947charge 0 multiplicity 1
 C        -0.069439         0.029024         0.052592
 C         1.492403         0.095283         0.110054
 C         2.223121        -1.240657         0.233105
 C         3.325928        -0.095457         0.029032
 C         4.636840         0.421348        -0.212487
 C         4.331272         2.037296        -0.032058
 O         2.949670         2.087051         0.642116
 C         2.559772         0.776673         0.985048
 O         2.302233         0.385783        -1.119197
 H        -0.490051        -0.263058         1.055061
 H        -0.550220         0.930994        -0.376691
 H        -0.169740        -0.793575        -0.673721
 H         2.175848        -1.821916         1.255450
 H         2.362175        -1.923379        -0.588325
 H         5.358121         0.196865         0.615308
 H         5.015704         0.281423        -1.239513
 H         5.082508         2.544208         0.561028
 H         4.160090         2.599589        -0.934829
 H         2.549388         0.460098         2.009672
