19
Iteration:   719
 C        -0.051557         0.281089        -0.046467
 C         1.473470         0.013913         0.159426
 C         2.370695        -1.320147         0.312709
 C         3.299161        -0.069148        -0.107275
 C         4.636791         0.551315        -0.302348
 C         4.334325         2.064141         0.135638
 O         2.865800         1.997271         0.667807
 C         2.556340         0.730121         1.030529
 O         2.260071         0.223141        -1.157018
 H        -0.707890        -0.212113         0.659007
 H        -0.282719         1.320592         0.051625
 H        -0.099560        -0.193176        -1.001178
 H         2.602121        -1.708655         1.323101
 H         2.136432        -2.044011        -0.410275
 H         5.437137         0.047312         0.254751
 H         4.811900         0.486743        -1.361938
 H         5.051483         2.541836         0.867987
 H         4.283955         2.768612        -0.751430
 H         2.839579         0.496727         2.042641
