19
Iteration:  1420
 C         0.036455         0.122298         0.055493
 C         1.531485         0.001059         0.067233
 C         2.332651        -1.308224         0.308333
 C         3.230853        -0.118539        -0.086727
 C         4.611966         0.524167        -0.298457
 C         4.389307         2.016476         0.031818
 O         2.880822         2.143353         0.696463
 C         2.502614         0.763797         0.965542
 O         2.267518         0.295299        -1.106013
 H        -0.226815        -0.437795         0.985075
 H        -0.150302         1.223791         0.069755
 H        -0.443060        -0.332161        -0.823191
 H         2.481677        -1.679588         1.315327
 H         1.996958        -2.026004        -0.411823
 H         5.351508         0.030985         0.307435
 H         4.759960         0.520070        -1.410697
 H         4.961293         2.452058         0.914084
 H         4.224421         2.646540        -0.911187
 H         2.568229         0.623770         2.031053
