19
Iteration:  3635charge 0 multiplicity 1
 C        -0.023275         0.319622         0.014269
 C         1.480838        -0.057039        -0.029442
 C         2.296232        -1.360357         0.414306
 C         3.360533        -0.125787        -0.021236
 C         4.727448         0.571341        -0.219092
 C         4.071118         2.063968        -0.150561
 O         3.027142         2.030218         0.774361
 C         2.501564         0.730580         0.954359
 O         2.347346         0.235017        -1.100671
 H        -0.234641         0.082696         1.073323
 H        -0.232252         1.382130        -0.082696
 H        -0.714748        -0.321231        -0.530188
 H         2.157554        -1.628099         1.436212
 H         2.330216        -2.139379        -0.273357
 H         5.498975         0.263051         0.504631
 H         5.056470         0.582685        -1.318609
 H         4.676096         2.991605         0.044837
 H         3.619841         2.225444        -1.202069
 H         2.408571         0.651781         2.053290
