19
Iteration:  3719charge 0 multiplicity 1
 C        -0.029474        -0.059385         0.115746
 C         1.479278         0.090658         0.042000
 C         2.302805        -1.209442         0.332210
 C         3.230327        -0.035997        -0.093098
 C         4.558206         0.467103        -0.235404
 C         4.413705         2.008370         0.084471
 O         3.027234         2.149637         0.721127
 C         2.471369         0.935548         0.914998
 O         2.266066         0.229750        -1.224838
 H        -0.151497        -0.474022         1.083588
 H        -0.637545         0.848453        -0.193850
 H        -0.219286        -0.893404        -0.635634
 H         2.520456        -1.565418         1.378387
 H         2.018774        -2.121325        -0.336221
 H         5.379266        -0.130486         0.313572
 H         4.828056         0.318446        -1.315672
 H         5.258417         2.390974         0.648936
 H         4.244563         2.517867        -0.803306
 H         2.473504         0.737896         2.018311
