19
Iteration:  3181
 C        -0.046247        -0.054699         0.084538
 C         1.420288         0.037970        -0.003212
 C         2.329606        -1.221765         0.333751
 C         3.264074        -0.030277         0.029197
 C         4.618363         0.455802        -0.231617
 C         4.292733         2.017451        -0.017707
 O         3.099476         2.180326         0.765409
 C         2.525348         0.822718         0.907468
 O         2.219000         0.295819        -1.232918
 H        -0.346838        -0.138811         1.099243
 H        -0.516444         0.953579        -0.124898
 H        -0.462060        -0.881774        -0.546961
 H         2.431823        -1.679680         1.344176
 H         2.406167        -1.969544        -0.527465
 H         5.323788        -0.024298         0.395701
 H         4.993747         0.098206        -1.220410
 H         5.075850         2.472099         0.701002
 H         4.119342         2.670737        -0.892065
 H         2.552457         0.614193         2.052301
