19
Iteration:  2374charge 0 multiplicity 1
 C        -0.048550         0.090983        -0.017134
 C         1.469649         0.032031         0.251618
 C         2.402471        -1.317360         0.328218
 C         3.303437        -0.063420        -0.122530
 C         4.602912         0.537346        -0.245999
 C         4.191063         1.953981        -0.161921
 O         2.986676         2.071062         0.696902
 C         2.587299         0.732499         1.050083
 O         2.238434         0.386840        -1.075726
 H        -0.793291        -0.264730         0.718973
 H        -0.225284         1.171699        -0.035037
 H        -0.240208        -0.139025        -1.000522
 H         2.552949        -1.752878         1.341435
 H         2.091800        -2.070107        -0.502159
 H         5.310055         0.260468         0.548289
 H         5.259973         0.365321        -1.066756
 H         4.913541         2.629719         0.393921
 H         4.161611         2.317854        -1.322585
 H         2.788039         0.614525         2.036657
