19
Iteration:  1109charge 0 multiplicity 1
 C        -0.048020         0.093192        -0.006353
 C         1.443613         0.068684         0.119724
 C         2.237720        -1.339762         0.400847
 C         3.323159        -0.154857        -0.075727
 C         4.657547         0.534806        -0.258168
 C         4.196481         1.986405        -0.114305
 O         3.060289         2.106864         0.785033
 C         2.575418         0.813225         0.943450
 O         2.323641         0.350060        -1.118659
 H        -0.572381        -0.403882         0.851946
 H        -0.586925         1.073500        -0.056732
 H        -0.274980        -0.397307        -0.963893
 H         2.294646        -1.837856         1.357977
 H         1.880429        -1.911476        -0.403208
 H         5.384999         0.294092         0.539711
 H         5.084248         0.387175        -1.330022
 H         4.977062         2.690606         0.395664
 H         4.021760         2.513636        -1.132074
 H         2.547426         0.315303         2.003680
