19
Iteration:  3033
 C        -0.029817         0.060968        -0.048954
 C         1.404099         0.009743         0.149812
 C         2.458489        -1.238587         0.267848
 C         3.206997        -0.017864        -0.043423
 C         4.637582         0.466221        -0.283299
 C         4.277883         1.968891        -0.086390
 O         3.076428         2.092526         0.713612
 C         2.533343         0.790482         1.004925
 O         2.170048         0.328023        -1.024286
 H        -0.557089         0.000093         0.967761
 H        -0.112944         1.042282        -0.504549
 H        -0.502059        -0.621192        -0.679568
 H         2.544351        -1.678625         1.211021
 H         2.554988        -1.961414        -0.558022
 H         5.256723         0.076947         0.618544
 H         5.195448         0.309978        -1.205067
 H         4.875302         2.667132         0.514695
 H         3.860870         2.412644        -1.010980
 H         2.599295         0.598595         2.128180
