19
Iteration:   665charge 0 multiplicity 1
 C        -0.099149         0.087203        -0.025943
 C         1.452033         0.072953         0.040287
 C         2.296533        -1.208065         0.314345
 C         3.339470        -0.143674        -0.069283
 C         4.611660         0.516066        -0.278930
 C         4.203490         1.989889         0.037438
 O         3.015799         2.089577         0.772262
 C         2.594601         0.736598         0.981256
 O         2.324686         0.325790        -1.137397
 H        -0.479187        -0.453471         0.854834
 H        -0.480016         1.134466        -0.096276
 H        -0.431262        -0.406023        -0.931750
 H         2.379340        -1.708734         1.335075
 H         2.136348        -2.002319        -0.390095
 H         5.328325         0.206745         0.504449
 H         4.988291         0.412524        -1.257252
 H         5.028782         2.349688         0.693271
 H         4.139203         2.654269        -0.869357
 H         2.684519         0.609063         2.043033
