19
Iteration:  1048charge 0 multiplicity 1
 C         0.028320         0.301772         0.076289
 C         1.525857         0.046832         0.081613
 C         2.289455        -1.284070         0.257135
 C         3.305389        -0.166235        -0.052806
 C         4.686780         0.597024        -0.221403
 C         4.123847         2.002190        -0.109328
 O         2.940873         1.986658         0.672163
 C         2.585801         0.696426         1.006803
 O         2.312021         0.268544        -1.065620
 H        -0.510220        -0.120561         0.948091
 H        -0.239032         1.351516        -0.110994
 H        -0.244281        -0.283899        -0.816840
 H         2.185424        -1.716549         1.313568
 H         2.004104        -2.070242        -0.524964
 H         5.306085         0.444141         0.760691
 H         5.313013         0.491311        -1.087303
 H         4.656924         2.731188         0.456248
 H         3.985938         2.302841        -1.120514
 H         2.477324         0.505212         2.051194
