19
Iteration:  3195charge 0 multiplicity 1
 C        -0.103769        -0.021371         0.035085
 C         1.440929         0.010966         0.030396
 C         2.366769        -1.245068         0.310197
 C         3.260767        -0.108397        -0.103192
 C         4.689175         0.518913        -0.241510
 C         4.385801         2.036112         0.039944
 O         3.077115         2.107643         0.713824
 C         2.502094         0.926398         0.944907
 O         2.133767         0.292894        -1.134312
 H        -0.260140        -0.383915         1.137245
 H        -0.621506         0.864848        -0.334889
 H        -0.539184        -0.852767        -0.524290
 H         2.458190        -1.615106         1.429296
 H         2.062212        -2.060193        -0.386037
 H         5.328928         0.259682         0.696652
 H         5.219008         0.527350        -1.187498
 H         5.224368         2.536939         0.571908
 H         4.352815         2.389025        -0.953959
 H         2.421343         0.572350         2.117639
