19
Iteration:   174charge 0 multiplicity 1
 C         0.066345         0.114623         0.091855
 C         1.477881         0.000327         0.186261
 C         2.234921        -1.293514         0.218350
 C         3.238242        -0.069837        -0.127091
 C         4.669393         0.566322        -0.048309
 C         4.285677         1.969740        -0.132551
 O         2.928754         2.093180         0.696446
 C         2.564195         0.714726         0.929628
 O         2.293509         0.379965        -1.136647
 H        -0.468457        -0.479929         0.796011
 H        -0.360869         1.078848        -0.010061
 H        -0.154855        -0.441988        -0.802731
 H         2.281891        -1.829867         1.175742
 H         2.071297        -1.908827        -0.631315
 H         5.093324         0.311944         0.893046
 H         5.269419         0.301278        -0.959955
 H         5.011860         2.623618         0.393845
 H         4.093714         2.354030        -1.180352
 H         2.688994         0.448896         1.985546
