19
Iteration:   475
 C        -0.074707        -0.064249         0.177328
 C         1.455250         0.089622         0.010111
 C         2.279245        -1.257732         0.169314
 C         3.214858        -0.110140        -0.043741
 C         4.708634         0.494519        -0.109630
 C         4.281215         1.968868         0.023130
 O         3.051429         2.142104         0.799010
 C         2.519556         0.838316         0.911437
 O         2.296858         0.408033        -1.283419
 H        -0.373152        -0.579395         1.095265
 H        -0.650613         0.853307         0.014680
 H        -0.497802        -0.700053        -0.606645
 H         2.179944        -1.791473         1.156138
 H         2.125552        -1.907174        -0.716531
 H         5.125613         0.088983         0.794935
 H         5.418559         0.488512        -1.013314
 H         5.282810         2.418134         0.440125
 H         4.213952         2.250768        -1.029440
 H         2.519461         0.628849         1.990280
