19
Iteration:  1652
 C        -0.040514        -0.010522         0.119765
 C         1.412301         0.007032         0.059438
 C         2.319343        -1.300293         0.213842
 C         3.214374        -0.056907        -0.057671
 C         4.665469         0.498728        -0.228966
 C         4.346603         1.978348        -0.076765
 O         3.056391         2.181319         0.778533
 C         2.555868         0.809991         0.946905
 O         2.213912         0.366903        -1.121021
 H        -0.496207        -0.481692         0.948814
 H        -0.543194         0.919105         0.016274
 H        -0.352492        -0.533513        -0.799627
 H         2.405545        -1.643066         1.184831
 H         2.504088        -2.063462        -0.570935
 H         5.025697         0.069884         0.657086
 H         5.263605         0.233265        -1.029418
 H         5.123410         2.588763         0.465083
 H         3.949748         2.508313        -1.033725
 H         2.636777         0.574434         1.957620
