19
Iteration:   450
 C        -0.024507         0.034417         0.031099
 C         1.445300         0.035078        -0.028472
 C         2.388585        -1.227767         0.183199
 C         3.157617        -0.025472        -0.053719
 C         4.645280         0.464919        -0.130336
 C         4.297956         2.027730        -0.066748
 O         3.061951         2.028818         0.840716
 C         2.467199         0.761001         0.973818
 O         2.254753         0.406814        -1.177827
 H        -0.224499        -0.060548         1.146427
 H        -0.517144         1.004333        -0.239590
 H        -0.539046        -0.871577        -0.323021
 H         2.393247        -1.543060         1.280638
 H         2.551507        -2.065197        -0.456978
 H         5.301889         0.073292         0.773481
 H         5.116682         0.207304        -1.085960
 H         5.162918         2.578345         0.452131
 H         4.230609         2.410802        -1.087428
 H         2.448367         0.515211         2.057746
