19
Iteration:  1192charge 0 multiplicity 1
 C         0.024698         0.172168         0.063929
 C         1.486664         0.069237         0.091622
 C         2.317531        -1.280149         0.295279
 C         3.289837        -0.199164        -0.082682
 C         4.687699         0.567984        -0.198905
 C         4.252432         1.989516         0.023335
 O         2.935996         2.084681         0.608820
 C         2.562148         0.715074         0.942312
 O         2.184946         0.349673        -1.094895
 H        -0.354592         0.163330         1.074342
 H        -0.098710         1.014687        -0.593746
 H        -0.282070        -0.783164        -0.407666
 H         2.281261        -1.681923         1.370592
 H         2.244552        -2.097150        -0.471662
 H         5.416149         0.172132         0.538825
 H         5.184971         0.371391        -1.155155
 H         4.892707         2.420469         0.735565
 H         4.233376         2.528090        -0.920921
 H         2.611783         0.581268         2.018216
