19
Iteration:  3423
 C         0.041208         0.311769         0.051366
 C         1.493237         0.004005         0.072757
 C         2.409091        -1.310406         0.374972
 C         3.299579        -0.201410         0.018016
 C         4.618602         0.565492        -0.268982
 C         4.129902         2.070139         0.014649
 O         2.917981         2.086399         0.669011
 C         2.570879         0.795036         0.897626
 O         2.274238         0.129879        -1.188839
 H        -0.461897        -0.101511         0.999583
 H        -0.115264         1.376099         0.037039
 H        -0.423902        -0.157519        -0.817655
 H         2.261783        -1.752080         1.359782
 H         2.372699        -2.072574        -0.342723
 H         5.502561         0.326201         0.453635
 H         4.859250         0.354067        -1.287681
 H         4.941784         2.418810         0.822448
 H         4.268058         2.790880        -0.780698
 H         2.490172         0.585621         1.976405
