19
Iteration:   590charge 0 multiplicity 1
 C        -0.006203         0.225219         0.012143
 C         1.480152         0.014196         0.071324
 C         2.381871        -1.294334         0.221954
 C         3.292028        -0.090549        -0.083637
 C         4.609004         0.522024        -0.242627
 C         4.120192         1.976965        -0.053623
 O         3.010975         2.041847         0.858886
 C         2.516252         0.720478         0.966090
 O         2.338506         0.327703        -1.144013
 H        -0.405206         0.204492         1.037245
 H        -0.181568         1.177124        -0.538871
 H        -0.483959        -0.598449        -0.528740
 H         2.516418        -1.710250         1.279476
 H         2.072676        -2.128938        -0.402759
 H         5.256621         0.382759         0.680966
 H         5.200673         0.518801        -1.114766
 H         4.898623         2.542498         0.422447
 H         3.808531         2.449355        -0.997869
 H         2.532385         0.411669         2.060315
