19
Iteration:  4995charge 0 multiplicity 1
 C         0.045678         0.241866         0.006486
 C         1.575836         0.026875         0.051168
 C         2.448525        -1.320135         0.417913
 C         3.322458        -0.218824         0.042163
 C         4.627782         0.459232        -0.240889
 C         4.133313         2.005086        -0.031337
 O         2.751778         2.074723         0.598743
 C         2.509230         0.779176         0.947316
 O         2.368867         0.368040        -1.092704
 H        -0.408190         0.014512         0.942840
 H        -0.050285         1.306989        -0.140495
 H        -0.400284        -0.299427        -0.770146
 H         2.491842        -1.566021         1.477399
 H         2.329531        -2.042207        -0.403100
 H         5.533259         0.123623         0.376856
 H         4.817093         0.174176        -1.362085
 H         4.915391         2.505652         0.553296
 H         3.881715         2.363349        -1.092059
 H         2.525826         0.706521         2.040788
