19
Iteration:  3270
 C        -0.053178         0.247158         0.047690
 C         1.478082        -0.028283         0.029392
 C         2.310544        -1.343826         0.311644
 C         3.335708        -0.147516        -0.027061
 C         4.587215         0.586457        -0.327601
 C         4.171224         2.097503         0.018069
 O         2.907544         2.093658         0.661886
 C         2.619090         0.797477         1.027526
 O         2.376813         0.157303        -1.101178
 H        -0.445371         0.027376         1.094213
 H        -0.087344         1.345214         0.010411
 H        -0.687998        -0.145278        -0.746234
 H         2.360231        -1.565993         1.452220
 H         2.409817        -2.149649        -0.409983
 H         5.398876         0.061607         0.186120
 H         4.896577         0.488047        -1.355671
 H         5.028397         2.372186         0.756779
 H         4.113630         2.580816        -0.941405
 H         2.602107         0.508817         2.057454
