19
Iteration:  4673
 C        -0.113599         0.181787        -0.005855
 C         1.478948        -0.009494         0.177946
 C         2.423317        -1.375345         0.298739
 C         3.339365        -0.117085         0.008713
 C         4.639398         0.536807        -0.048906
 C         4.215370         1.976160        -0.174457
 O         2.892985         2.115443         0.566454
 C         2.598153         0.796811         0.989459
 O         2.289370         0.333852        -1.109308
 H        -0.620641        -0.232160         0.845161
 H        -0.251089         1.208434        -0.074538
 H        -0.439867        -0.253423        -0.939387
 H         2.451382        -1.832918         1.317583
 H         2.304047        -2.109588        -0.494146
 H         5.298586         0.108076         0.771013
 H         5.335923         0.277661        -0.916349
 H         4.722346         2.830230         0.390843
 H         4.076382         2.237015        -1.229943
 H         2.754858         0.755150         2.099728
