19
Iteration:  2054
 C        -0.006135         0.206714         0.018827
 C         1.464831         0.033260         0.108042
 C         2.288046        -1.272217         0.225272
 C         3.369567        -0.145047         0.039063
 C         4.723146         0.545324        -0.298903
 C         4.044917         1.990154        -0.176523
 O         2.930478         2.055331         0.797817
 C         2.620223         0.713523         1.010230
 O         2.378189         0.316033        -1.011021
 H        -0.518994         0.001078         0.970705
 H        -0.254060         1.245453        -0.256090
 H        -0.447507        -0.583098        -0.683094
 H         2.443711        -1.955695         1.024236
 H         2.144737        -1.784652        -0.765697
 H         5.447561         0.233200         0.473941
 H         4.837991         0.448766        -1.412640
 H         4.629485         2.923620         0.075175
 H         3.653647         2.108771        -1.255161
 H         2.600231         0.610127         2.174680
