19
Iteration:   390
 C         0.071037         0.328352        -0.097518
 C         1.469670        -0.045993         0.098164
 C         2.371030        -1.345697         0.317366
 C         3.345288        -0.202403        -0.005331
 C         4.559350         0.542713        -0.377857
 C         4.064016         2.052780        -0.000562
 O         2.927402         2.030728         0.806800
 C         2.560116         0.704173         1.005219
 O         2.374989         0.333468        -1.055828
 H        -0.443216         0.245500         0.864690
 H         0.067959         1.379582        -0.403541
 H        -0.447170        -0.181262        -0.921315
 H         2.418499        -1.723679         1.326721
 H         2.312832        -2.121569        -0.452485
 H         5.469457         0.198642         0.024111
 H         4.684649         0.596253        -1.503454
 H         4.862384         2.330719         0.614377
 H         3.902362         2.755997        -0.823932
 H         2.572368         0.331411         2.028999
