19
Iteration:  1874charge 0 multiplicity 1
 C        -0.058915         0.152009         0.075813
 C         1.439565         0.037167         0.004846
 C         2.470033        -1.378302         0.351968
 C         3.268949        -0.091097         0.012142
 C         4.554812         0.552639        -0.360854
 C         4.333504         2.071635         0.051019
 O         2.992030         2.107158         0.758556
 C         2.510189         0.710778         0.908122
 O         2.237995         0.279916        -1.152872
 H        -0.499126        -0.031062         1.092196
 H        -0.211234         1.230816        -0.215397
 H        -0.604737        -0.498744        -0.552177
 H         2.541429        -1.719985         1.363472
 H         2.474151        -2.085846        -0.422479
 H         5.515617         0.165290        -0.062769
 H         4.570074         0.459622        -1.482023
 H         5.078826         2.238150         0.917668
 H         4.259357         2.799736        -0.800938
 H         2.499391         0.641392         1.988611
