19
Iteration:  2863charge 0 multiplicity 1
 C        -0.042873         0.046184         0.056077
 C         1.468821         0.013280         0.055735
 C         2.340942        -1.265460         0.294294
 C         3.234750        -0.095083        -0.025693
 C         4.565632         0.566787        -0.250361
 C         4.204997         2.044661        -0.110284
 O         3.141507         2.087197         0.877805
 C         2.560294         0.787337         0.946400
 O         2.281366         0.306233        -1.202791
 H        -0.452104        -0.255302         1.024957
 H        -0.295689         0.999645        -0.328881
 H        -0.383496        -0.703706        -0.687185
 H         2.267122        -1.626174         1.371873
 H         2.281877        -1.988570        -0.530761
 H         5.014692         0.181034         0.692581
 H         5.115413         0.233591        -1.145943
 H         5.022121         2.602032         0.264946
 H         3.856480         2.519917        -1.061142
 H         2.347491         0.625047         2.041418
