19
Iteration:  3926charge 0 multiplicity 1
 C         0.021623         0.174556        -0.049687
 C         1.460710         0.015597         0.087688
 C         2.418935        -1.280607         0.310222
 C         3.269549        -0.108572        -0.028241
 C         4.606460         0.537275        -0.216712
 C         4.209231         1.995266        -0.141552
 O         2.969803         2.170513         0.837071
 C         2.512957         0.797265         1.020292
 O         2.262746         0.177583        -1.148274
 H        -0.505282        -0.431757         0.760394
 H        -0.249386         1.258241        -0.039486
 H        -0.320852        -0.197369        -1.077393
 H         2.508794        -1.941038         1.223053
 H         2.263461        -1.978706        -0.477573
 H         5.227684         0.347815         0.639177
 H         5.013426         0.305823        -1.133300
 H         5.041736         2.634999         0.416573
 H         4.030494         2.394348        -1.134841
 H         2.796120         0.520653         2.057720
