19
Iteration:  1922
 C        -0.002877         0.185806         0.127281
 C         1.479911        -0.063208         0.163540
 C         2.355561        -1.391373         0.258167
 C         3.294790        -0.119061        -0.085805
 C         4.629723         0.624091        -0.317007
 C         4.334370         2.042615         0.173139
 O         2.892691         2.101545         0.565688
 C         2.609273         0.757365         0.944524
 O         2.168820         0.303376        -1.145230
 H        -0.425722         0.239832         1.111552
 H        -0.146259         1.112756        -0.433301
 H        -0.588104        -0.663682        -0.387882
 H         2.465111        -1.932237         1.217003
 H         2.176346        -2.023037        -0.666024
 H         5.456169         0.147196         0.281490
 H         5.027753         0.500136        -1.312843
 H         5.003630         2.281405         0.969574
 H         4.301832         2.749247        -0.594545
 H         2.851830         0.726007         1.950437
