19
Iteration:   556
 C         0.040893         0.346278        -0.066805
 C         1.470715        -0.052657         0.142718
 C         2.241693        -1.446339         0.278738
 C         3.356903        -0.169870        -0.057337
 C         4.635051         0.703809        -0.374172
 C         4.162672         2.068830         0.007275
 O         2.965591         2.051410         0.838079
 C         2.528851         0.695104         0.994524
 O         2.345959         0.198649        -1.101498
 H        -0.549270         0.069795         0.825690
 H        -0.159518         1.416167        -0.211222
 H        -0.301628        -0.261225        -0.919863
 H         2.393467        -1.704550         1.345224
 H         1.903437        -2.181024        -0.505439
 H         5.528117         0.450049         0.237957
 H         4.969734         0.600449        -1.417516
 H         4.975848         2.543587         0.572057
 H         3.951994         2.725995        -0.872574
 H         2.586980         0.638660         2.101550
