19
Iteration:   718
 C        -0.060387         0.280985        -0.048407
 C         1.481581         0.012353         0.161649
 C         2.378569        -1.322288         0.311230
 C         3.293979        -0.082433        -0.106834
 C         4.633533         0.555461        -0.301746
 C         4.340013         2.065911         0.135649
 O         2.866947         2.000537         0.674677
 C         2.560230         0.744655         1.031933
 O         2.260544         0.216692        -1.160720
 H        -0.734622        -0.205438         0.648298
 H        -0.282867         1.329723         0.048749
 H        -0.127889        -0.167653        -1.034053
 H         2.620969        -1.715009         1.291365
 H         2.130971        -2.052795        -0.410570
 H         5.402603         0.040870         0.257595
 H         4.794560         0.446407        -1.404869
 H         5.040753         2.553208         0.867460
 H         4.263117         2.788210        -0.730940
 H         2.840338         0.496838         2.075897
