19
Iteration:  4984charge 0 multiplicity 1
 C         0.059188         0.282647         0.018636
 C         1.493669        -0.018567         0.090819
 C         2.376282        -1.352280         0.317575
 C         3.334967        -0.128198         0.052849
 C         4.646821         0.557869        -0.169429
 C         4.177705         2.013886        -0.124232
 O         2.822689         2.049055         0.567484
 C         2.481469         0.744201         1.005460
 O         2.356646         0.300522        -1.094084
 H        -0.196026         0.026444         1.021131
 H        -0.229199         1.306533        -0.135098
 H        -0.520403        -0.331764        -0.596129
 H         2.407183        -1.766442         1.335826
 H         2.357271        -2.251971        -0.300534
 H         5.371174         0.251595         0.653992
 H         5.120749         0.377276        -1.220592
 H         4.797480         2.697458         0.492901
 H         4.197736         2.538745        -1.142753
 H         2.503199         0.413685         2.046199
