19
Iteration:  1024charge 0 multiplicity 1
 C        -0.030605         0.199948         0.037505
 C         1.494909        -0.020622         0.071763
 C         2.203928        -1.337727         0.343457
 C         3.318131        -0.130975        -0.051920
 C         4.624937         0.519770        -0.271271
 C         4.220470         2.122857        -0.034662
 O         3.005913         2.123645         0.827989
 C         2.572833         0.745523         0.892906
 O         2.360744         0.226038        -1.170244
 H        -0.486159         0.161636         1.060028
 H        -0.213194         1.225081        -0.383869
 H        -0.511106        -0.559731        -0.612308
 H         2.103337        -1.720674         1.473323
 H         2.032982        -2.162594        -0.381693
 H         5.472790         0.322938         0.418934
 H         4.862507         0.324084        -1.300337
 H         4.865197         2.817761         0.505433
 H         4.023932         2.502645        -1.013544
 H         2.657535         0.358062         1.892521
