19
Iteration:  2014charge 0 multiplicity 1
 C        -0.030470         0.081746        -0.064164
 C         1.467362        -0.095131         0.107399
 C         2.362379        -1.288110         0.311267
 C         3.259853        -0.074769        -0.114377
 C         4.588916         0.497368        -0.301054
 C         4.218544         2.062996        -0.062429
 O         3.088964         2.154839         0.825437
 C         2.598404         0.790444         0.990711
 O         2.195055         0.342785        -1.049456
 H        -0.487955        -0.535068         0.779706
 H        -0.146191         1.191750         0.131270
 H        -0.443239        -0.316587        -0.964579
 H         2.534404        -1.623150         1.431220
 H         2.269755        -2.084638        -0.398288
 H         5.270840         0.114666         0.483792
 H         5.101611         0.351472        -1.277263
 H         5.044991         2.666461         0.109617
 H         3.693161         2.217663        -1.037989
 H         2.562622         0.418661         1.959189
