19
Iteration:  2755charge 0 multiplicity 1
 C         0.050331         0.221141         0.103054
 C         1.458332        -0.050293         0.036782
 C         2.410805        -1.305217         0.402436
 C         3.257665        -0.154456        -0.171577
 C         4.594825         0.621888        -0.325523
 C         4.241823         2.092921         0.110464
 O         2.949480         2.114965         0.664149
 C         2.576240         0.732922         0.919045
 O         2.213678         0.162187        -1.164252
 H        -0.600643        -0.126177         0.900564
 H        -0.058826         1.279558         0.098858
 H        -0.320182        -0.104535        -0.887680
 H         2.339594        -1.732984         1.341591
 H         2.192276        -2.092024        -0.304813
 H         4.987123         0.136563         0.663073
 H         5.543224         0.586022        -0.930179
 H         4.952863         2.433374         0.882749
 H         4.090572         2.806125        -0.672229
 H         2.702589         0.518081         2.036576
