19
Iteration:  3670
 C         0.051063         0.096143        -0.117840
 C         1.489377         0.052212         0.244430
 C         2.390013        -1.253264         0.305687
 C         3.241852        -0.093804        -0.085280
 C         4.589486         0.489825        -0.254363
 C         4.182949         1.972940        -0.074213
 O         3.040891         2.093263         0.648389
 C         2.558045         0.840365         1.054788
 O         2.186919         0.310137        -0.993132
 H        -0.533992         0.089720         0.877196
 H        -0.202071         0.906000        -0.753896
 H        -0.197308        -0.803552        -0.647722
 H         2.459042        -1.954628         1.163978
 H         2.312058        -1.803843        -0.601471
 H         5.178794         0.028681         0.448228
 H         5.073246         0.352065        -1.200679
 H         4.998609         2.528571         0.466724
 H         4.107864         2.365375        -1.171142
 H         2.645622         0.640918         2.098742
