19
Iteration:  4843charge 0 multiplicity 1
 C        -0.108878         0.175836         0.073132
 C         1.495758        -0.020212         0.055454
 C         2.445232        -1.247935         0.414034
 C         3.266738        -0.069253         0.039208
 C         4.626886         0.500573        -0.218032
 C         4.235109         2.042585         0.034164
 O         2.964697         2.108721         0.602461
 C         2.454948         0.821368         0.871972
 O         2.309721         0.149918        -1.206931
 H        -0.575522        -0.178257         0.994199
 H        -0.241382         1.287716        -0.030301
 H        -0.529562        -0.293509        -0.822632
 H         2.613312        -1.536514         1.490644
 H         2.495480        -2.091939        -0.223428
 H         5.297747         0.125139         0.567579
 H         5.043151         0.284395        -1.226959
 H         4.937960         2.519822         0.713327
 H         4.393689         2.709438        -0.947146
 H         2.703752         0.646585         1.943276
