19
Iteration:  4620
 C        -0.147305         0.151809         0.098253
 C         1.420022        -0.055121         0.009788
 C         2.383297        -1.276129         0.348617
 C         3.286446        -0.031983        -0.000897
 C         4.623906         0.578095        -0.224109
 C         4.345913         2.093099         0.116845
 O         3.000082         2.194398         0.586019
 C         2.456093         0.793902         0.836489
 O         2.344518         0.042402        -1.145645
 H        -0.313949         0.030954         1.176421
 H        -0.438356         1.113564        -0.162662
 H        -0.713749        -0.648563        -0.350053
 H         2.378629        -1.641655         1.377902
 H         2.357123        -1.977496        -0.522389
 H         5.469782         0.068678         0.386389
 H         4.887239         0.332205        -1.306808
 H         4.921863         2.538432         1.008922
 H         4.489423         2.710992        -0.757527
 H         2.551667         0.688164         1.908768
