19
Iteration:  3791
 C         0.116635         0.253949         0.008277
 C         1.538534        -0.048244         0.121102
 C         2.375227        -1.309268         0.255994
 C         3.286510        -0.120125        -0.009353
 C         4.589734         0.444686        -0.391759
 C         4.212591         2.048627         0.109907
 O         2.786816         2.116096         0.553281
 C         2.575291         0.822287         1.053169
 O         2.268947         0.208495        -1.039785
 H        -0.155526        -0.061491         1.030092
 H         0.043736         1.337451        -0.185730
 H        -0.384153        -0.303842        -0.786453
 H         2.396319        -1.667542         1.229638
 H         2.207488        -2.080529        -0.560049
 H         5.441009         0.083286         0.158329
 H         4.916717         0.378949        -1.437438
 H         4.735250         2.327183         1.072646
 H         4.503375         2.881503        -0.637575
 H         2.583837         0.854316         2.163418
