19
Iteration:   908charge 0 multiplicity 1
 C         0.005360         0.244058         0.099029
 C         1.415519        -0.039142         0.060578
 C         2.397922        -1.301599         0.266491
 C         3.227190        -0.127908        -0.061930
 C         4.606267         0.568700        -0.178794
 C         4.260701         2.067230        -0.102545
 O         2.983301         2.062309         0.793332
 C         2.520054         0.719454         0.925804
 O         2.315452         0.249607        -1.192685
 H        -0.601047        -0.188239         0.859302
 H        -0.166449         1.309711         0.225188
 H        -0.402065        -0.063075        -0.862140
 H         2.329063        -1.581715         1.275476
 H         2.561113        -2.130256        -0.512351
 H         4.953539         0.312167         0.858186
 H         5.232096         0.053633        -0.864151
 H         4.996740         2.744730         0.437591
 H         4.148190         2.488372        -1.156958
 H         2.495981         0.541822         2.056159
