19
Iteration:   580charge 0 multiplicity 1
 C         0.060322         0.235271        -0.027980
 C         1.476773        -0.042922         0.058892
 C         2.269826        -1.261958         0.296779
 C         3.297025        -0.117506        -0.076165
 C         4.645896         0.559561        -0.266321
 C         4.088751         2.077421        -0.006221
 O         2.985889         2.007300         0.855455
 C         2.614040         0.696526         0.953682
 O         2.304699         0.291577        -1.155662
 H        -0.333351         0.289686         1.001274
 H        -0.172820         1.259160        -0.395673
 H        -0.477875        -0.523459        -0.602775
 H         2.143296        -1.664518         1.339890
 H         2.483982        -1.831549        -0.551661
 H         5.356919         0.115718         0.524647
 H         5.036683         0.245917        -1.183538
 H         4.833058         2.691733         0.425326
 H         3.813636         2.523155        -0.956721
 H         2.759416         0.402400         2.046995
