19
Iteration:  1632charge 0 multiplicity 1
 C        -0.118948         0.034357         0.010506
 C         1.427337        -0.067207         0.125167
 C         2.470707        -1.275315         0.261629
 C         3.250762        -0.028131        -0.074805
 C         4.624840         0.512922        -0.191237
 C         4.254409         1.998903        -0.095173
 O         3.099268         2.072483         0.706487
 C         2.505369         0.799575         0.981582
 O         2.212700         0.418788        -1.068214
 H        -0.596127        -0.363827         0.919584
 H        -0.179996         1.119463         0.109357
 H        -0.765710        -0.317648        -0.855453
 H         2.695706        -1.765316         1.155454
 H         2.236228        -2.059575        -0.559848
 H         5.208820         0.059189         0.569239
 H         4.889086         0.270164        -1.144742
 H         5.144271         2.474839         0.464761
 H         4.362960         2.549795        -1.067734
 H         2.563034         0.528334         2.020768
