19
Iteration:  4653
 C         0.105092         0.176761         0.120189
 C         1.492825         0.007578         0.073346
 C         2.365617        -1.207286         0.338335
 C         3.329181        -0.094032        -0.072451
 C         4.653592         0.512825        -0.111400
 C         4.175139         1.988324        -0.044215
 O         2.847109         2.049162         0.488060
 C         2.475679         0.765690         0.899091
 O         2.320886         0.296582        -1.094033
 H        -0.139515        -0.210501         1.100479
 H        -0.159859         1.180546         0.032882
 H        -0.358834        -0.360645        -0.673184
 H         2.395986        -1.588484         1.350759
 H         2.072147        -2.096642        -0.295269
 H         5.083566         0.216495         0.939938
 H         5.299498         0.013513        -0.871538
 H         4.773794         2.601491         0.742385
 H         4.247413         2.498463        -0.991104
 H         2.452957         0.468749         1.945882
