19
Iteration:  4520charge 0 multiplicity 1
 C        -0.029539         0.080319         0.119483
 C         1.461492        -0.003335         0.031699
 C         2.409327        -1.191524         0.438031
 C         3.247436        -0.071194        -0.116096
 C         4.658159         0.536539        -0.207356
 C         4.323668         1.959019         0.116262
 O         2.940550         2.179047         0.564945
 C         2.463215         0.822589         0.875781
 O         2.278536         0.167826        -1.228631
 H        -0.269149        -0.342083         1.076778
 H        -0.458336         1.041934         0.045904
 H        -0.360906        -0.650261        -0.610422
 H         2.313776        -1.315674         1.559870
 H         2.306695        -2.036907        -0.175573
 H         5.298422         0.055735         0.610592
 H         5.030633         0.385108        -1.313904
 H         4.892249         2.344949         0.971788
 H         4.387198         2.800739        -0.580949
 H         2.470668         0.629462         1.958955
