19
Iteration:  1508charge 0 multiplicity 1
 C        -0.074541         0.119416         0.078188
 C         1.480534         0.077693         0.047788
 C         2.272018        -1.330496         0.261197
 C         3.348095        -0.171298        -0.063067
 C         4.723871         0.528663        -0.246607
 C         4.153492         2.042814        -0.086664
 O         2.995428         2.071120         0.725738
 C         2.545472         0.730984         1.027299
 O         2.335959         0.386777        -1.074097
 H        -0.467304        -0.119662         1.108142
 H        -0.714209         0.999743        -0.288508
 H        -0.387208        -0.661090        -0.642102
 H         2.132200        -1.847934         1.250959
 H         2.211813        -1.943057        -0.578696
 H         5.501561         0.394765         0.531186
 H         5.204287         0.603406        -1.305583
 H         4.872264         2.717011         0.511729
 H         4.021438         2.125560        -1.253388
 H         2.464494         0.486271         2.059925
