19
Iteration:  3204charge 0 multiplicity 1
 C        -0.088418        -0.031168         0.052338
 C         1.397108         0.007424         0.135198
 C         2.362996        -1.263478         0.311041
 C         3.242372        -0.056203        -0.161852
 C         4.666299         0.572877        -0.195017
 C         4.449930         2.001163        -0.008138
 O         3.034179         2.138527         0.692577
 C         2.532408         0.804405         0.895333
 O         2.171229         0.304078        -1.113337
 H        -0.666477        -0.166146         0.976181
 H        -0.547946         0.946093        -0.262177
 H        -0.297227        -0.821940        -0.697261
 H         2.422785        -1.530009         1.428980
 H         2.090783        -2.122188        -0.394502
 H         5.273950         0.015734         0.526053
 H         5.356414         0.421396        -1.044589
 H         5.061221         2.587589         0.757290
 H         4.295051         2.541174        -0.953234
 H         2.495016         0.682228         2.077829
