19
Iteration:  3943charge 0 multiplicity 1
 C        -0.084474         0.269062        -0.067262
 C         1.428697        -0.099040         0.082012
 C         2.411643        -1.331666         0.433657
 C         3.333289        -0.078516        -0.089309
 C         4.635333         0.602499        -0.232870
 C         4.191061         2.137217         0.002531
 O         3.046419         2.050382         0.775156
 C         2.582806         0.758745         0.905067
 O         2.223757         0.134920        -1.153502
 H        -0.745309        -0.099514         0.644655
 H        -0.090481         1.355272         0.047154
 H        -0.399432        -0.020549        -1.045848
 H         2.523979        -1.559729         1.472501
 H         2.453714        -2.259534        -0.274911
 H         5.337043         0.190234         0.576012
 H         5.126868         0.487929        -1.290259
 H         4.854646         2.753137         0.490785
 H         3.734239         2.588494        -0.910663
 H         2.426881         0.541810         1.973249
