19
Iteration:  3184
 C        -0.061649        -0.059270         0.057796
 C         1.426499         0.040981        -0.010244
 C         2.323225        -1.223893         0.335308
 C         3.272991        -0.047699         0.010989
 C         4.646011         0.462602        -0.239769
 C         4.284233         2.025576         0.005796
 O         3.117879         2.171957         0.745272
 C         2.511113         0.844012         0.924697
 O         2.192906         0.295019        -1.224727
 H        -0.295567        -0.149296         1.193589
 H        -0.514225         0.927774        -0.107130
 H        -0.499931        -0.874324        -0.511801
 H         2.511435        -1.731495         1.366433
 H         2.387388        -1.970316        -0.483071
 H         5.357796        -0.051005         0.531798
 H         5.000058         0.154339        -1.223158
 H         5.081432         2.469037         0.634339
 H         4.122089         2.683559        -0.812871
 H         2.570197         0.621939         2.094763
