19
Iteration:  3686
 C        -0.110639        -0.019602        -0.053779
 C         1.431339        -0.019036         0.155412
 C         2.358966        -1.329785         0.313933
 C         3.260960        -0.058742         0.032222
 C         4.685517         0.450486        -0.272324
 C         4.425777         2.022407        -0.083751
 O         2.985194         2.155964         0.657833
 C         2.573294         0.813360         0.991289
 O         2.155475         0.431378        -1.039195
 H        -0.738433         0.031546         0.791961
 H        -0.235568         0.933996        -0.676773
 H        -0.280770        -0.943971        -0.696673
 H         2.593930        -1.672049         1.348545
 H         2.063275        -2.178582        -0.450394
 H         5.443441         0.124241         0.570451
 H         4.880502         0.267268        -1.365302
 H         5.157274         2.604894         0.476786
 H         4.189094         2.508433        -0.969139
 H         2.693456         0.677127         2.115091
