19
Iteration:  2673
 C        -0.050433        -0.031383        -0.011003
 C         1.387622         0.061528         0.115663
 C         2.365842        -1.184997         0.290328
 C         3.238626        -0.064625        -0.033047
 C         4.685160         0.508971        -0.297523
 C         4.277793         1.986042         0.017120
 O         3.031095         2.095911         0.707326
 C         2.558189         0.838985         0.994528
 O         2.241863         0.291747        -1.103297
 H        -0.526521        -0.207374         0.928789
 H        -0.403272         0.891130        -0.529497
 H        -0.297360        -0.905605        -0.653327
 H         2.605234        -1.609013         1.341356
 H         2.150198        -1.935746        -0.464502
 H         5.499496         0.277748         0.374933
 H         4.988052         0.324568        -1.335822
 H         5.065517         2.379648         0.523518
 H         4.172349         2.663792        -0.857187
 H         2.347992         0.599626         2.130821
