19
Iteration:    78
 C         0.028565         0.187743        -0.057833
 C         1.426767        -0.132923         0.169839
 C         2.372202        -1.292835         0.284994
 C         3.258181        -0.062703        -0.058714
 C         4.632862         0.476129        -0.284494
 C         4.189542         2.045835        -0.068319
 O         3.028036         2.086180         0.681272
 C         2.519951         0.745766         1.000816
 O         2.255088         0.348823        -1.013466
 H        -0.504181         0.083542         0.873671
 H        -0.102197         1.178728        -0.405716
 H        -0.468113        -0.490796        -0.747634
 H         2.467265        -1.727610         1.283365
 H         2.304155        -2.036292        -0.469435
 H         5.315052         0.289298         0.472233
 H         5.047876         0.425082        -1.222894
 H         4.985124         2.470473         0.544790
 H         4.069206         2.752791        -0.856751
 H         2.739939         0.539781         2.044901
