19
Iteration:  1945
 C        -0.067253         0.106082         0.185901
 C         1.470284         0.051534         0.096321
 C         2.475692        -1.263318         0.248308
 C         3.276801        -0.077533        -0.045589
 C         4.595897         0.483590        -0.340487
 C         4.360319         1.999536         0.100043
 O         2.869025         2.058506         0.579860
 C         2.457721         0.769445         0.934731
 O         2.319323         0.373298        -1.099537
 H        -0.288715        -0.096479         1.234643
 H        -0.387210         1.095008        -0.144579
 H        -0.617594        -0.754308        -0.386760
 H         2.455709        -1.803873         1.230273
 H         2.272004        -1.870479        -0.719763
 H         5.419221        -0.066627         0.202803
 H         4.926422         0.282519        -1.386058
 H         4.950383         2.238640         0.945137
 H         4.366390         2.709878        -0.744033
 H         2.577121         0.582183         1.961779
