19
Iteration:  2634
 C         0.019545         0.175100        -0.037360
 C         1.456160        -0.105339         0.065365
 C         2.341977        -1.267860         0.355216
 C         3.265218        -0.058105        -0.086913
 C         4.627659         0.592732        -0.256953
 C         4.133803         2.041046        -0.119244
 O         3.074587         2.090736         0.869238
 C         2.553237         0.809602         1.009419
 O         2.214087         0.179375        -1.164639
 H        -0.477248         0.214624         1.012400
 H        -0.065321         1.169660        -0.489365
 H        -0.472887        -0.547978        -0.712963
 H         2.662764        -1.619796         1.291534
 H         2.395661        -2.151649        -0.359904
 H         5.320550         0.198304         0.550856
 H         5.189821         0.419912        -1.180356
 H         4.902961         2.667929         0.567533
 H         3.952642         2.587451        -1.068635
 H         2.720198         0.540438         1.997744
