19
Iteration:  4191
 C        -0.090328         0.057841         0.059043
 C         1.417419         0.034565         0.054453
 C         2.275584        -1.320074         0.328118
 C         3.291300        -0.116096        -0.034511
 C         4.680164         0.553617        -0.165239
 C         4.220367         2.064499        -0.137514
 O         3.089126         2.135729         0.820652
 C         2.544315         0.773510         0.896497
 O         2.328303         0.266249        -1.203666
 H        -0.457770         0.002041         1.105415
 H        -0.572927         1.007743        -0.368495
 H        -0.549611        -0.810711        -0.493372
 H         2.377554        -1.675447         1.327722
 H         2.058705        -2.136383        -0.438674
 H         5.178065         0.341499         0.772207
 H         5.369792         0.371969        -1.041629
 H         4.958943         2.748012         0.283027
 H         3.904888         2.587297        -1.003457
 H         2.518117         0.609761         2.006998
