19
Iteration:  2691
 C        -0.010303        -0.060767         0.044677
 C         1.498500         0.038382         0.082036
 C         2.227779        -1.322091         0.321532
 C         3.274978        -0.109833         0.010096
 C         4.612549         0.501488        -0.293476
 C         4.320478         2.043222         0.017752
 O         2.946888         2.138604         0.618423
 C         2.539146         0.840531         0.974511
 O         2.331900         0.429368        -1.087633
 H        -0.280623        -0.308548         1.081729
 H        -0.531207         0.848797        -0.270588
 H        -0.159633        -0.921439        -0.726088
 H         2.070212        -1.744656         1.337340
 H         2.152287        -1.902503        -0.547337
 H         5.254402        -0.110747         0.347294
 H         4.728543         0.390197        -1.402728
 H         5.114467         2.512081         0.826947
 H         4.411028         2.496113        -0.938635
 H         2.745751         0.544952         1.947758
