19
Iteration:  2949
 C        -0.020929         0.226063         0.109314
 C         1.397810        -0.051374         0.105307
 C         2.478299        -1.277466         0.299480
 C         3.243590        -0.059797        -0.067271
 C         4.639092         0.543166        -0.290884
 C         4.256552         2.008956         0.118535
 O         2.956634         2.092221         0.617424
 C         2.552454         0.757608         0.904734
 O         2.235293         0.219628        -1.167429
 H        -0.440877        -0.121229         1.101583
 H        -0.203716         1.284494         0.170854
 H        -0.626168        -0.208682        -0.732439
 H         2.723493        -1.646868         1.355620
 H         2.280203        -2.048898        -0.434011
 H         5.276386         0.164292         0.457662
 H         4.978669         0.326143        -1.284374
 H         4.931062         2.348170         0.885524
 H         4.420522         2.739751        -0.718500
 H         2.546569         0.456066         1.873065
