19
Iteration:  1896
 C        -0.009167         0.229993         0.060047
 C         1.495734        -0.013745         0.132974
 C         2.429800        -1.293199         0.337812
 C         3.259231        -0.080055        -0.193097
 C         4.613205         0.577248        -0.387672
 C         4.257290         2.030748         0.189268
 O         2.925980         2.076545         0.713246
 C         2.571725         0.741921         0.937208
 O         2.186395         0.191306        -1.173445
 H        -0.426215         0.190961         1.097760
 H        -0.117273         1.222666        -0.435048
 H        -0.447721        -0.602860        -0.402563
 H         2.722011        -1.517055         1.340034
 H         2.286497        -2.101212        -0.305114
 H         5.323468         0.058024         0.249813
 H         4.988742         0.563550        -1.434588
 H         5.097638         2.241755         0.970643
 H         4.149671         2.775023        -0.637151
 H         2.726647         0.615584         2.029159
