19
Iteration:   611
 C        -0.100301         0.139878         0.012990
 C         1.395821         0.100018         0.045859
 C         2.503310        -1.414339         0.160057
 C         3.257502        -0.100426        -0.060309
 C         4.650986         0.456251        -0.111914
 C         4.286171         2.005619        -0.141120
 O         3.011119         2.081466         0.826592
 C         2.481138         0.761323         0.993645
 O         2.251597         0.447862        -1.089244
 H        -0.383447         0.112052         1.087863
 H        -0.477032         1.054787        -0.498948
 H        -0.511789        -0.773359        -0.422214
 H         2.622433        -2.087180         1.102628
 H         2.643580        -1.996649        -0.761894
 H         5.236608         0.083683         0.812575
 H         5.164863         0.088778        -0.992196
 H         4.947932         2.809247         0.180015
 H         3.854648         2.208993        -1.152963
 H         2.525507         0.710064         2.095466
