19
Iteration:  2951charge 0 multiplicity 1
 C        -0.029586         0.217479         0.109680
 C         1.393108        -0.054237         0.070532
 C         2.479055        -1.276959         0.300986
 C         3.247712        -0.065705        -0.070528
 C         4.601658         0.530008        -0.297170
 C         4.275736         2.016906         0.118010
 O         2.957880         2.105210         0.626882
 C         2.567579         0.752492         0.900886
 O         2.246882         0.218575        -1.150291
 H        -0.347658        -0.156439         1.078753
 H        -0.217419         1.300833         0.168992
 H        -0.744543        -0.228521        -0.685723
 H         2.688815        -1.629812         1.399655
 H         2.243124        -2.043260        -0.414402
 H         5.304337         0.168371         0.546008
 H         4.982657         0.388429        -1.374302
 H         4.923951         2.424060         0.879087
 H         4.450133         2.714082        -0.698046
 H         2.537285         0.489819         1.910692
