19
Iteration:  2764
 C         0.021421         0.250847         0.071545
 C         1.511325        -0.026677         0.102759
 C         2.314538        -1.340191         0.417553
 C         3.283833        -0.054331        -0.149386
 C         4.621635         0.616936        -0.303258
 C         4.250630         2.094729         0.099834
 O         2.911095         2.036501         0.684683
 C         2.572621         0.715645         0.883606
 O         2.260478         0.158614        -1.175672
 H        -0.491414        -0.165901         0.990981
 H        -0.147111         1.315324         0.030556
 H        -0.379754        -0.183897        -0.805293
 H         2.407539        -1.645978         1.449765
 H         2.283286        -2.039181        -0.474924
 H         5.246867         0.313807         0.580151
 H         5.195590         0.596331        -1.238182
 H         4.933011         2.568476         0.706437
 H         4.127076         2.756571        -0.821645
 H         2.686949         0.322221         1.994355
