19
Iteration:  1320charge 0 multiplicity 1
 C        -0.065579         0.059595         0.001819
 C         1.477025        -0.015755         0.051105
 C         2.389250        -1.250439         0.262762
 C         3.246664        -0.047272         0.077537
 C         4.573142         0.457048        -0.265367
 C         4.156044         1.995678        -0.127868
 O         3.129878         2.073365         0.835420
 C         2.451065         0.829205         1.035962
 O         2.356245         0.323825        -1.175320
 H        -0.439015        -0.078671         1.009029
 H        -0.233628         1.121578        -0.158118
 H        -0.563269        -0.524305        -0.779056
 H         2.398365        -1.702805         1.173124
 H         2.381315        -1.854174        -0.656056
 H         5.402843         0.259959         0.427594
 H         4.830057         0.341848        -1.259981
 H         5.028626         2.654223         0.218662
 H         3.878213         2.469628        -1.044954
 H         2.337023         0.670474         2.116825
