19
Iteration:  2960charge 0 multiplicity 1
 C        -0.086708         0.182456         0.122741
 C         1.475180        -0.050764        -0.035581
 C         2.413687        -1.306274         0.335582
 C         3.271109        -0.113297        -0.118237
 C         4.541815         0.511687        -0.299994
 C         4.358804         2.059707         0.110769
 O         2.945633         2.133515         0.665809
 C         2.540804         0.797596         0.928258
 O         2.279422         0.232986        -1.122557
 H        -0.210527        -0.254970         1.142991
 H        -0.231568         1.247777         0.117463
 H        -0.855182        -0.337298        -0.507380
 H         2.432334        -1.660811         1.419108
 H         2.351472        -2.122410        -0.375765
 H         5.267346         0.059376         0.317418
 H         4.966704         0.562106        -1.274418
 H         5.035103         2.409912         0.866859
 H         4.355695         2.682091        -0.827863
 H         2.632317         0.626940         1.933038
