19
Iteration:  1042
 C         0.021115         0.277328         0.043939
 C         1.509682         0.053237         0.059326
 C         2.217971        -1.279546         0.308505
 C         3.300061        -0.155143        -0.040737
 C         4.742964         0.628360        -0.235275
 C         4.131174         1.992888        -0.098572
 O         2.925301         1.983329         0.705444
 C         2.621423         0.683008         1.029127
 O         2.306570         0.235046        -1.115598
 H        -0.269093        -0.073096         1.038520
 H        -0.289110         1.308765        -0.131052
 H        -0.338846        -0.359376        -0.791604
 H         2.205570        -1.673463         1.288085
 H         2.022480        -1.868941        -0.553342
 H         5.225625         0.410696         0.688541
 H         5.299076         0.581563        -1.225444
 H         4.883665         2.675646         0.431991
 H         3.981962         2.525834        -1.121681
 H         2.560286         0.618104         2.176437
