19
Iteration:  3664charge 0 multiplicity 1
 C         0.034966         0.145220        -0.085387
 C         1.513831         0.033153         0.239747
 C         2.384195        -1.233913         0.310316
 C         3.278415        -0.083406        -0.081604
 C         4.540739         0.492512        -0.255122
 C         4.149390         1.946004        -0.122530
 O         3.011750         2.075366         0.699971
 C         2.571049         0.827655         0.996445
 O         2.248185         0.282042        -1.009710
 H        -0.531633         0.147219         0.808582
 H        -0.179113         1.064173        -0.725241
 H        -0.105164        -0.833979        -0.634467
 H         2.442977        -1.860649         1.228440
 H         2.227708        -1.843279        -0.681357
 H         5.156716         0.191955         0.730780
 H         5.011887         0.386556        -1.268188
 H         4.978094         2.396360         0.412839
 H         3.971003         2.457637        -1.017831
 H         2.719304         0.701575         2.120923
