19
Iteration:  3034
 C        -0.036454         0.068979        -0.048181
 C         1.406482         0.020353         0.145477
 C         2.457365        -1.249934         0.263798
 C         3.204961        -0.010471        -0.039887
 C         4.642278         0.464745        -0.285017
 C         4.270059         1.971361        -0.083882
 O         3.074000         2.089496         0.717506
 C         2.539882         0.791042         1.012317
 O         2.175441         0.317035        -1.030059
 H        -0.544465         0.007996         0.967781
 H        -0.158051         1.042005        -0.482320
 H        -0.466021        -0.635501        -0.691169
 H         2.539356        -1.675422         1.204103
 H         2.555522        -1.944776        -0.544068
 H         5.237446         0.105815         0.563929
 H         5.196338         0.310928        -1.165675
 H         4.879390         2.676305         0.487274
 H         3.867428         2.395365        -1.046052
 H         2.608570         0.592939         2.169112
