19
Iteration:  4734
 C        -0.020489         0.046689        -0.210333
 C         1.445484         0.076788         0.117951
 C         2.226650        -1.208653         0.532932
 C         3.329849        -0.137073        -0.029652
 C         4.714879         0.555660        -0.384248
 C         4.112395         2.068481        -0.157533
 O         3.090640         2.071318         0.884645
 C         2.539583         0.836112         0.998911
 O         2.350752         0.219123        -1.076890
 H        -0.643704        -0.214561         0.704068
 H        -0.531762         1.035484        -0.603147
 H        -0.175461        -0.859327        -0.879858
 H         2.169477        -1.409200         1.661261
 H         2.261478        -2.083644        -0.113243
 H         5.315533         0.140868         0.366051
 H         4.991907         0.436107        -1.440669
 H         4.765318         2.820783         0.171750
 H         3.760681         2.150691        -1.216968
 H         2.378375         0.533315         2.055008
