19
Iteration:   506charge 0 multiplicity 1
 C        -0.019341         0.076242         0.037902
 C         1.468419         0.004168         0.096514
 C         2.377017        -1.303620         0.247991
 C         3.272536        -0.097588        -0.055139
 C         4.654148         0.477776        -0.220146
 C         4.251504         2.031424         0.027875
 O         2.996133         2.053408         0.681945
 C         2.524519         0.749971         0.916492
 O         2.218952         0.428378        -1.088708
 H        -0.587904        -0.523723         0.774316
 H        -0.263660         1.174690         0.126609
 H        -0.392546        -0.100093        -0.972058
 H         2.389131        -1.785081         1.272804
 H         2.265411        -1.871402        -0.667550
 H         5.226937         0.145997         0.734069
 H         5.272498         0.445974        -1.159753
 H         5.059540         2.454112         0.738268
 H         4.210314         2.525869        -0.943586
 H         2.554103         0.617307         2.020133
