19
Iteration:  1015charge 0 multiplicity 1
 C        -0.034449         0.198705         0.043561
 C         1.448945        -0.033715         0.030216
 C         2.335094        -1.320583         0.339620
 C         3.239891        -0.130039        -0.065466
 C         4.592656         0.534922        -0.316580
 C         4.214011         2.075573        -0.008575
 O         3.069179         2.121555         0.837804
 C         2.509061         0.784382         0.910017
 O         2.361200         0.211262        -1.127116
 H        -0.523401         0.208082         1.026842
 H        -0.256045         1.097144        -0.561361
 H        -0.385668        -0.610833        -0.615261
 H         2.267343        -1.579575         1.463541
 H         2.124709        -2.099384        -0.438405
 H         5.371654         0.030622         0.453248
 H         4.907092         0.501515        -1.338306
 H         5.004159         2.644322         0.488827
 H         4.094934         2.521104        -0.965551
 H         2.375941         0.699136         1.959729
