19
Iteration:   122
 C         0.004465         0.027049        -0.124384
 C         1.486537        -0.001799         0.079048
 C         2.277237        -1.234826         0.382120
 C         3.237798        -0.061288        -0.005463
 C         4.560205         0.526509        -0.433682
 C         4.196960         2.016862        -0.064606
 O         3.139667         2.071885         0.894193
 C         2.534524         0.829549         1.030568
 O         2.327752         0.292479        -1.103960
 H        -0.657088        -0.480208         0.582497
 H        -0.252454         1.061691        -0.070111
 H        -0.358265        -0.377818        -1.077843
 H         2.333253        -1.521871         1.428113
 H         2.125364        -2.093922        -0.237273
 H         5.261109         0.159171         0.278648
 H         4.680968         0.303723        -1.435473
 H         5.026264         2.596349         0.405637
 H         4.001121         2.629804        -0.952721
 H         2.321673         0.720167         2.113690
