19
Iteration:  2573charge 0 multiplicity 1
 C         0.003194         0.238533         0.052807
 C         1.540352        -0.011832         0.140434
 C         2.402257        -1.350721         0.209303
 C         3.321426        -0.173504         0.006898
 C         4.639448         0.522521        -0.149444
 C         4.192589         2.038643        -0.207617
 O         2.912044         2.073418         0.703131
 C         2.546163         0.766377         1.016899
 O         2.237891         0.327149        -1.071925
 H        -0.598030        -0.142491         0.834061
 H        -0.226454         1.295242        -0.008899
 H        -0.395453        -0.214768        -0.897017
 H         2.726331        -1.799376         1.214481
 H         2.359416        -1.996541        -0.648671
 H         5.231720         0.284911         0.719881
 H         5.015554         0.406152        -1.183930
 H         4.798159         2.777064         0.170726
 H         3.910311         2.227274        -1.252704
 H         2.556680         0.443358         2.160630
