19
Iteration:  1303charge 0 multiplicity 1
 C         0.039824         0.068210        -0.030225
 C         1.490455         0.056012        -0.006369
 C         2.230112        -1.288059         0.248407
 C         3.328662        -0.156497         0.116782
 C         4.632643         0.533668        -0.277254
 C         4.181782         1.995883        -0.157690
 O         3.028704         2.138454         0.840709
 C         2.590288         0.791011         1.000481
 O         2.293255         0.367788        -1.056742
 H        -0.375348        -0.497328         0.836813
 H        -0.589103         0.981786        -0.132620
 H        -0.256253        -0.549525        -0.915557
 H         2.067254        -1.808874         1.317665
 H         2.109037        -2.063184        -0.526299
 H         5.401316         0.237422         0.448351
 H         4.782046         0.189907        -1.378991
 H         4.992529         2.593098         0.185439
 H         3.774173         2.271472        -1.184888
 H         2.549201         0.603597         2.120894
