19
Iteration:  4907charge 0 multiplicity 1
 C        -0.068190        -0.000997        -0.087825
 C         1.408985         0.018658         0.073690
 C         2.274184        -1.331316         0.385987
 C         3.316282        -0.103801         0.060120
 C         4.626073         0.531307        -0.303398
 C         4.289232         1.991815        -0.135071
 O         3.029567         2.200494         0.696699
 C         2.506332         0.878399         1.040131
 O         2.367066         0.323913        -1.024965
 H        -0.633707        -0.249145         0.737444
 H        -0.474578         0.862119        -0.593645
 H        -0.268736        -0.800484        -0.691967
 H         2.283161        -1.707521         1.423773
 H         2.216992        -2.137577        -0.297471
 H         5.477949         0.083987         0.305221
 H         4.908647         0.168673        -1.360685
 H         5.067030         2.597100         0.409455
 H         3.904486         2.531013        -1.094272
 H         2.466886         0.514491         2.052156
