19
Iteration:   606
 C        -0.096539         0.144331         0.024414
 C         1.434573         0.110657         0.046582
 C         2.497456        -1.430803         0.204626
 C         3.251454        -0.155763        -0.120349
 C         4.645542         0.520320        -0.106931
 C         4.287155         2.006112        -0.149792
 O         2.996721         2.080937         0.848178
 C         2.449499         0.754620         1.020441
 O         2.286946         0.436081        -1.104628
 H        -0.492451         0.282415         1.039837
 H        -0.448318         1.075303        -0.414433
 H        -0.546312        -0.724298        -0.484470
 H         2.756237        -1.926536         1.098827
 H         2.455508        -1.954118        -0.793294
 H         5.215467         0.018242         0.629644
 H         5.149093         0.047853        -1.025464
 H         5.020776         2.814573         0.112724
 H         3.908267         2.210150        -1.152913
 H         2.337859         0.548554         2.105669
