19
Iteration:  2832
 C        -0.084419         0.052124        -0.041801
 C         1.426275         0.020445         0.151607
 C         2.335422        -1.312424         0.286693
 C         3.321389        -0.093488        -0.065610
 C         4.744707         0.554649        -0.213617
 C         4.140276         1.955614        -0.120775
 O         3.064703         2.115443         0.825206
 C         2.662780         0.765665         0.939357
 O         2.188298         0.408683        -1.087845
 H        -0.682093         0.066030         0.841579
 H        -0.363185         0.944244        -0.589622
 H        -0.348202        -0.849441        -0.686287
 H         2.334875        -1.785597         1.255659
 H         2.313431        -1.921050        -0.577164
 H         5.141235        -0.011623         0.721951
 H         5.402916         0.267053        -1.104365
 H         4.792523         2.814566         0.094237
 H         3.716108         2.244190        -1.066592
 H         2.614296         0.592999         2.124044
