19
Iteration:  3221
 C        -0.038064         0.046642         0.015514
 C         1.450053        -0.051310         0.208974
 C         2.379814        -1.248581         0.338821
 C         3.231950        -0.045524        -0.101101
 C         4.582093         0.402684        -0.243354
 C         4.258156         2.073593         0.073867
 O         2.984687         2.132456         0.612523
 C         2.621509         0.842313         0.962489
 O         2.233007         0.340544        -1.164429
 H        -0.532497        -0.214093         0.942405
 H        -0.358657         1.054239        -0.305880
 H        -0.357915        -0.700294        -0.733989
 H         2.575195        -1.705115         1.253594
 H         2.195853        -1.864323        -0.528762
 H         5.251069         0.192755         0.634909
 H         5.151412         0.114298        -1.177931
 H         5.018516         2.340901         0.759080
 H         4.316295         2.567756        -0.927564
 H         2.948998         0.466487         1.883735
