19
Iteration:  3392
 C        -0.050377         0.159978        -0.047449
 C         1.430716        -0.065074         0.115424
 C         2.420593        -1.299057         0.392028
 C         3.196007        -0.058709        -0.113988
 C         4.671546         0.601985        -0.168220
 C         4.264186         1.982859        -0.071095
 O         3.049709         2.105525         0.767801
 C         2.533813         0.832528         0.915978
 O         2.202477         0.209874        -1.127188
 H        -0.559416        -0.172782         0.902536
 H        -0.130602         1.231979        -0.193573
 H        -0.403926        -0.385696        -0.930713
 H         2.506725        -1.715039         1.451537
 H         2.339240        -2.028982        -0.441400
 H         5.366851         0.177919         0.541094
 H         5.155075         0.442680        -1.086579
 H         5.010797         2.734156         0.418227
 H         4.007320         2.321976        -1.069679
 H         2.595405         0.543047         1.923102
