19
Iteration:  4764charge 0 multiplicity 1
 C        -0.042548         0.122094        -0.106890
 C         1.483200        -0.071793         0.135079
 C         2.420626        -1.340611         0.360021
 C         3.265965        -0.146606         0.081383
 C         4.569667         0.504211        -0.212514
 C         4.216921         2.074694        -0.147340
 O         3.013413         2.228765         0.730394
 C         2.552679         0.855314         0.954693
 O         2.241596         0.246009        -1.083452
 H        -0.650002         0.128436         0.758112
 H        -0.242331         1.035154        -0.631843
 H        -0.483871        -0.638662        -0.657203
 H         2.482996        -1.757716         1.330676
 H         2.585872        -1.946475        -0.550175
 H         5.249824         0.073569         0.592469
 H         5.106883         0.089729        -1.080665
 H         5.063142         2.520589         0.355158
 H         4.181519         2.319745        -1.218934
 H         2.548320         0.668366         2.018955
