19
Iteration:   858
 C         0.038719         0.244602        -0.123564
 C         1.515923        -0.038131         0.071814
 C         2.327494        -1.291694         0.285157
 C         3.303767        -0.116540         0.040721
 C         4.529754         0.503277        -0.275898
 C         4.043602         2.031186        -0.126502
 O         3.012409         2.017254         0.773530
 C         2.567982         0.710034         1.107239
 O         2.392886         0.346526        -1.056070
 H        -0.651776        -0.036621         0.731231
 H        -0.143985         1.338648        -0.013946
 H        -0.491485        -0.123797        -1.064677
 H         2.485349        -1.787106         1.326996
 H         2.326556        -1.993762        -0.568062
 H         5.295955         0.441579         0.473264
 H         4.738765         0.227184        -1.400197
 H         4.951310         2.508543         0.226548
 H         3.969386         2.557584        -1.064624
 H         2.636283         0.580987         2.169066
