19
Iteration:  2429
 C         0.003025         0.174413         0.223084
 C         1.470480        -0.024591        -0.011936
 C         2.305780        -1.314140         0.314108
 C         3.307517        -0.061388        -0.071865
 C         4.636299         0.499895        -0.275569
 C         4.293326         2.123469         0.054410
 O         2.921116         2.120028         0.676238
 C         2.500766         0.730548         0.890715
 O         2.289843         0.192215        -1.199828
 H        -0.177212         0.240211         1.317942
 H        -0.330445         1.150569        -0.103433
 H        -0.607785        -0.567769        -0.239913
 H         2.563128        -1.675499         1.330634
 H         2.234596        -2.172591        -0.503484
 H         5.439222         0.211814         0.426935
 H         4.910823         0.457760        -1.313698
 H         4.992939         2.422429         0.874373
 H         4.404672         2.880528        -0.855684
 H         2.507703         0.565323         1.992545
