19
Iteration:  2820
 C        -0.033493         0.073353        -0.024993
 C         1.504340         0.007221         0.138807
 C         2.367234        -1.278810         0.217490
 C         3.299101        -0.111632        -0.014071
 C         4.607890         0.476243        -0.229635
 C         4.187379         2.020395        -0.138821
 O         3.015445         2.094245         0.764406
 C         2.547098         0.764524         1.057163
 O         2.252393         0.415455        -1.061118
 H        -0.649795         0.100721         0.876237
 H        -0.136837         0.975639        -0.592750
 H        -0.400139        -0.737611        -0.684842
 H         2.520945        -1.746027         1.192571
 H         2.194739        -2.033560        -0.546220
 H         5.405764         0.327564         0.564079
 H         5.055584         0.360306        -1.240404
 H         4.990650         2.624279         0.146258
 H         3.851003         2.210425        -1.172240
 H         2.651424         0.404849         2.176447
