19
Iteration:  2025
 C         0.057686         0.093762        -0.028067
 C         1.467006        -0.025483         0.038504
 C         2.365486        -1.347794         0.342562
 C         3.237392        -0.099210         0.013550
 C         4.543803         0.534599        -0.312074
 C         4.145667         2.000415        -0.198035
 O         3.057856         2.079730         0.851046
 C         2.574194         0.763409         0.994140
 O         2.288067         0.424856        -1.048410
 H        -0.447633        -0.343081         0.892491
 H        -0.284954         1.182278        -0.027770
 H        -0.361912        -0.207556        -0.962066
 H         2.564932        -1.900543         1.373007
 H         2.326882        -2.048572        -0.463135
 H         5.269603         0.203390         0.458322
 H         4.920700         0.273463        -1.325289
 H         4.838284         2.660601         0.215917
 H         3.863215         2.497139        -1.179670
 H         2.607120         0.627144         2.011637
