19
Iteration:  2836charge 0 multiplicity 1
 C        -0.090744         0.060067        -0.056022
 C         1.411975         0.012570         0.140699
 C         2.344290        -1.302233         0.305821
 C         3.271288        -0.095579        -0.089554
 C         4.786461         0.557555        -0.183127
 C         4.134649         1.960910        -0.138617
 O         3.089562         2.097726         0.847596
 C         2.656055         0.768632         0.931277
 O         2.177995         0.389522        -1.088533
 H        -0.564161        -0.091630         0.958463
 H        -0.422414         0.964791        -0.660863
 H        -0.329492        -0.863071        -0.617089
 H         2.326809        -1.727037         1.319075
 H         2.185237        -1.848370        -0.652887
 H         5.163638         0.117414         0.734030
 H         5.415341         0.305479        -1.061215
 H         4.809546         2.907719         0.073662
 H         3.796080         2.387963        -1.096216
 H         2.697006         0.563077         1.974392
