19
Iteration:  4221charge 0 multiplicity 1
 C         0.005540        -0.025558        -0.135692
 C         1.435713        -0.019857         0.228625
 C         2.397083        -1.276065         0.336988
 C         3.276409        -0.022554         0.003528
 C         4.629484         0.407317        -0.304953
 C         4.278436         1.946396        -0.077565
 O         2.981631         2.142425         0.674346
 C         2.576363         0.852207         1.005608
 O         2.176937         0.444040        -1.024521
 H        -0.649345         0.097198         0.731572
 H        -0.089553         0.857521        -0.749105
 H        -0.291297        -0.873668        -0.705138
 H         2.578728        -1.749540         1.313078
 H         2.067676        -1.879486        -0.554869
 H         5.458596        -0.020405         0.480408
 H         5.099904         0.268501        -1.301561
 H         4.925619         2.396453         0.645781
 H         3.992220         2.551080        -0.948357
 H         2.701557         0.685814         2.053036
