19
Iteration:   732charge 0 multiplicity 1
 C         0.065704         0.207646         0.006142
 C         1.481991        -0.014229         0.121521
 C         2.284316        -1.270432         0.330367
 C         3.281979        -0.095077        -0.089489
 C         4.691716         0.568478        -0.299674
 C         4.216831         1.980342         0.136283
 O         2.909206         2.053899         0.600062
 C         2.564851         0.666295         0.916856
 O         2.258323         0.347819        -1.067403
 H        -0.414625        -0.259470         0.870218
 H        -0.181975         1.250459        -0.152784
 H        -0.382238        -0.211501        -0.870715
 H         2.224815        -1.695038         1.377167
 H         2.251564        -2.060844        -0.416885
 H         5.494127         0.135540         0.373107
 H         5.053247         0.608553        -1.263096
 H         4.883808         2.343496         0.963933
 H         4.290661         2.640896        -0.755792
 H         2.571173         0.355483         1.919412
