19
Iteration:   685charge 0 multiplicity 1
 C         0.028160         0.222897        -0.012523
 C         1.479787        -0.106931         0.016981
 C         2.358583        -1.330760         0.342535
 C         3.216637        -0.020774        -0.017667
 C         4.645231         0.566550        -0.326407
 C         4.368271         2.041937         0.064440
 O         3.006655         2.093463         0.806663
 C         2.413323         0.788377         0.974258
 O         2.238844         0.234519        -1.161467
 H        -0.525685        -0.449953         0.613646
 H        -0.228369         1.257120        -0.009873
 H        -0.310827        -0.049904        -1.023066
 H         2.432836        -1.720148         1.341848
 H         2.354188        -2.130999        -0.377240
 H         5.382154        -0.027018         0.144102
 H         4.671230         0.336120        -1.407105
 H         5.077341         2.563878         0.749155
 H         4.080028         2.649939        -0.826044
 H         2.542308         0.439627         2.010695
