19
Iteration:  4488
 C        -0.008421         0.230627         0.143454
 C         1.478794        -0.095467         0.090520
 C         2.403386        -1.313711         0.318238
 C         3.262990        -0.122623        -0.094629
 C         4.666095         0.617925        -0.070379
 C         4.244018         2.093766         0.035460
 O         2.918601         2.141208         0.505462
 C         2.584288         0.754301         0.927579
 O         2.205785         0.151911        -1.207405
 H        -0.495324        -0.239069         1.013942
 H        -0.291557         1.258201         0.120281
 H        -0.531156        -0.138594        -0.768325
 H         2.234474        -1.762477         1.349422
 H         2.400013        -2.095088        -0.379852
 H         5.232977         0.285918         0.885431
 H         5.287118         0.230518        -1.001308
 H         4.912225         2.523535         0.771808
 H         4.414027         2.619076        -0.923676
 H         2.791124         0.698076         1.981065
