19
Iteration:  3819charge 0 multiplicity 1
 C        -0.097522         0.253429        -0.005330
 C         1.382126        -0.023765         0.099571
 C         2.360533        -1.340823         0.413679
 C         3.362123        -0.146236        -0.030822
 C         4.644352         0.634383        -0.348003
 C         4.223953         2.062919         0.074751
 O         2.972823         2.024378         0.703332
 C         2.561703         0.756080         0.855914
 O         2.326245         0.201144        -1.113563
 H        -0.487130         0.127633         1.044501
 H        -0.290077         1.240094        -0.406704
 H        -0.525079        -0.515810        -0.649781
 H         2.417940        -1.611303         1.551246
 H         2.129337        -2.107885        -0.264324
 H         5.661589         0.388567         0.063220
 H         4.906372         0.660593        -1.472670
 H         4.865921         2.566791         0.839859
 H         4.295082         2.712781        -0.775760
 H         2.517481         0.620208         1.950146
