19
Iteration:  2235
 C         0.038506         0.128338         0.177377
 C         1.478426        -0.042189         0.111496
 C         2.289447        -1.283913         0.330436
 C         3.261459        -0.072014        -0.060256
 C         4.562551         0.522118        -0.306554
 C         4.303736         2.077337         0.116166
 O         2.904248         2.085150         0.574791
 C         2.520579         0.782359         0.957001
 O         2.354597         0.267483        -1.232037
 H        -0.031752         0.108788         1.287393
 H        -0.302911         1.126101        -0.102242
 H        -0.584663        -0.623009        -0.437541
 H         2.601323        -1.654095         1.317297
 H         1.998470        -2.021793        -0.546880
 H         5.367795         0.012676         0.279862
 H         4.826766         0.403971        -1.351275
 H         5.029250         2.382254         0.830536
 H         4.410699         2.699749        -0.740821
 H         2.607168         0.629716         2.095812
