19
Iteration:  3127charge 0 multiplicity 1
 C         0.052947         0.237193        -0.007760
 C         1.479164        -0.037526         0.199454
 C         2.361744        -1.320515         0.277522
 C         3.304523        -0.116561        -0.002326
 C         4.611744         0.611787        -0.195158
 C         4.261415         2.008608        -0.187990
 O         2.879094         2.037961         0.692281
 C         2.586062         0.723040         1.036473
 O         2.211412         0.321533        -1.092454
 H        -0.631363        -0.025896         0.815512
 H         0.038320         1.352212        -0.304249
 H        -0.403898        -0.199231        -0.978159
 H         2.540719        -1.773453         1.339843
 H         2.332543        -2.112580        -0.601870
 H         5.379566         0.237253         0.534333
 H         5.121065         0.255305        -1.152854
 H         5.044397         2.648254         0.330837
 H         3.787857         2.352266        -1.127445
 H         2.967338         0.292938         2.143777
