19
Iteration:  4910
 C        -0.047344         0.013896        -0.067391
 C         1.404645        -0.017391         0.067490
 C         2.285221        -1.318105         0.399270
 C         3.294934        -0.089297         0.046393
 C         4.655415         0.513838        -0.279908
 C         4.262262         1.997843        -0.130788
 O         3.040381         2.194209         0.708867
 C         2.483945         0.864466         1.010322
 O         2.372294         0.352884        -1.050190
 H        -0.631603        -0.225406         0.857151
 H        -0.470838         0.874270        -0.592210
 H        -0.319398        -0.862776        -0.740029
 H         2.332723        -1.682545         1.445360
 H         2.172050        -2.236860        -0.241296
 H         5.495973         0.169533         0.299901
 H         4.857237         0.119266        -1.289304
 H         5.108369         2.542830         0.293341
 H         3.950222         2.540503        -1.140832
 H         2.363432         0.487908         2.065115
