19
Iteration:  1466
 C        -0.082332         0.046172         0.005423
 C         1.421437        -0.007282         0.067870
 C         2.418408        -1.352906         0.269878
 C         3.247953        -0.052498        -0.063269
 C         4.684521         0.499306        -0.257746
 C         4.343116         2.005176         0.012551
 O         3.057928         2.154412         0.726483
 C         2.503104         0.836061         1.009357
 O         2.145120         0.345408        -1.121007
 H        -0.339221        -0.556837         0.894225
 H        -0.381228         1.117820        -0.017017
 H        -0.346403        -0.455512        -0.941865
 H         2.612764        -1.653151         1.330642
 H         2.390142        -2.170144        -0.383199
 H         5.244470         0.017588         0.472298
 H         5.005959         0.433707        -1.313167
 H         5.164148         2.494351         0.614478
 H         3.984580         2.517027        -0.945328
 H         2.501432         0.627678         2.106386
