19
Iteration:  2153
 C        -0.059754        -0.024769         0.050372
 C         1.481545         0.074272         0.128967
 C         2.310911        -1.271581         0.326150
 C         3.306832        -0.140490        -0.039090
 C         4.655444         0.455701        -0.350309
 C         4.357186         2.024903         0.079752
 O         2.908338         2.128071         0.573469
 C         2.566864         0.827099         0.979745
 O         2.234708         0.389273        -1.068999
 H        -0.599765        -0.576159         0.854106
 H        -0.430838         1.011188        -0.129101
 H        -0.334653        -0.733361        -0.726652
 H         2.402363        -1.614013         1.327854
 H         2.157571        -2.054816        -0.351645
 H         5.620580         0.084836         0.051099
 H         4.795151         0.556415        -1.466973
 H         5.001760         2.258988         0.969532
 H         4.437903         2.756421        -0.832102
 H         2.752094         0.749155         2.157421
