19
Iteration:  4140charge 0 multiplicity 1
 C         0.020676         0.284612         0.034021
 C         1.478653        -0.034913         0.107574
 C         2.385153        -1.345448         0.313793
 C         3.335400        -0.165390        -0.027782
 C         4.670512         0.565063        -0.188941
 C         4.132108         2.045097        -0.121855
 O         2.893377         2.048689         0.662869
 C         2.534536         0.692832         0.922340
 O         2.306694         0.282155        -1.039098
 H        -0.546660        -0.023107         0.874156
 H         0.001597         1.380521         0.043406
 H        -0.518731        -0.019254        -0.879776
 H         2.375152        -1.935992         1.257861
 H         2.389798        -2.048587        -0.530791
 H         5.328559         0.403614         0.682646
 H         5.223869         0.481499        -1.132097
 H         4.870818         2.772390         0.324916
 H         3.872123         2.671462        -1.053186
 H         2.639160         0.563971         1.998493
