19
Iteration:  1955charge 0 multiplicity 1
 C         0.001268         0.037699         0.198157
 C         1.437016        -0.068430         0.095034
 C         2.357273        -1.256997         0.290903
 C         3.266820        -0.013966        -0.028762
 C         4.643777         0.473453        -0.341620
 C         4.357624         1.916017         0.084793
 O         2.859934         2.124831         0.641528
 C         2.529357         0.816669         0.918736
 O         2.311550         0.420670        -1.197845
 H        -0.353903        -0.069386         1.197961
 H        -0.359765         1.032939         0.002194
 H        -0.579153        -0.590668        -0.604391
 H         2.476392        -1.804918         1.239382
 H         2.326237        -2.050391        -0.567073
 H         5.381401         0.059039         0.414503
 H         4.784997         0.310953        -1.430219
 H         5.126284         2.294955         0.767765
 H         4.319196         2.704251        -0.654167
 H         2.537629         0.589808         1.956109
