19
Iteration:  3533
 C         0.015295        -0.073899         0.048216
 C         1.439877         0.082417         0.208315
 C         2.244255        -1.219893         0.357325
 C         3.220240        -0.030589        -0.045736
 C         4.610312         0.454942        -0.339159
 C         4.364590         1.980953        -0.009944
 O         3.045231         2.194578         0.752224
 C         2.467016         0.889768         0.911128
 O         2.313914         0.258083        -1.208154
 H        -0.520198        -0.354574         0.955938
 H        -0.478761         0.819113        -0.389815
 H        -0.095864        -0.888928        -0.701667
 H         2.372786        -1.627739         1.319319
 H         2.010186        -1.954067        -0.440702
 H         5.355091        -0.042983         0.465726
 H         4.968716         0.069533        -1.303833
 H         5.092090         2.461987         0.689638
 H         4.273017         2.600961        -0.879776
 H         2.462612         0.730935         2.051597
