19
Iteration:  1714
 C        -0.014052         0.235294         0.012898
 C         1.437043        -0.082984         0.123421
 C         2.431481        -1.354416         0.213599
 C         3.262785        -0.072425         0.033928
 C         4.603367         0.508285        -0.310914
 C         4.220285         2.116883        -0.045081
 O         2.996815         2.053194         0.759933
 C         2.574197         0.789405         1.028185
 O         2.194690         0.286889        -1.098980
 H        -0.477931         0.288552         1.033794
 H         0.047673         1.218485        -0.490521
 H        -0.445534        -0.472979        -0.728622
 H         2.755512        -1.994656         1.143238
 H         2.562982        -1.946216        -0.674531
 H         5.461128         0.042200         0.313712
 H         4.891509         0.254040        -1.408447
 H         4.970938         2.679975         0.484008
 H         3.946951         2.374716        -1.030806
 H         2.558084         0.485737         2.152365
