19
Iteration:   986charge 0 multiplicity 1
 C        -0.067677         0.097188        -0.066494
 C         1.400782        -0.003785         0.067682
 C         2.482059        -1.239995         0.354858
 C         3.227854        -0.048933         0.016661
 C         4.650550         0.439196        -0.253138
 C         4.345866         2.008978        -0.031705
 O         3.008217         2.131365         0.802083
 C         2.583077         0.786932         0.954049
 O         2.127751         0.338577        -1.139542
 H        -0.746422         0.165660         0.770309
 H        -0.275717         0.868062        -0.799701
 H        -0.346064        -0.840521        -0.591254
 H         2.536986        -1.563601         1.351794
 H         2.320687        -2.001623        -0.412933
 H         5.350497        -0.165370         0.288203
 H         4.944357         0.129319        -1.294580
 H         5.159407         2.433239         0.602769
 H         4.192606         2.564594        -1.024300
 H         2.736690         0.475885         2.046971
