19
Iteration:  3955
 C        -0.007261         0.307870        -0.047772
 C         1.420061        -0.077203         0.068924
 C         2.400992        -1.333667         0.520969
 C         3.258172        -0.161603        -0.128624
 C         4.695800         0.689855        -0.315310
 C         4.206752         2.135844        -0.018447
 O         2.967440         2.015647         0.805223
 C         2.472878         0.696550         0.889875
 O         2.275488         0.163616        -1.141993
 H        -0.565467        -0.120487         0.686337
 H        -0.096014         1.404480        -0.075399
 H        -0.411472        -0.017910        -1.008093
 H         2.434449        -1.528246         1.551738
 H         2.395676        -2.324670        -0.107083
 H         5.496517         0.410497         0.505002
 H         5.193681         0.542183        -1.334708
 H         4.885921         2.639156         0.603786
 H         4.284152         2.707402        -0.974093
 H         2.644465         0.368802         1.940346
