19
Iteration:  4334charge 0 multiplicity 1
 C        -0.001246         0.110082         0.122581
 C         1.478034        -0.020355         0.164150
 C         2.350864        -1.337216         0.262176
 C         3.310053        -0.120626         0.008388
 C         4.632118         0.542843        -0.163553
 C         4.273510         2.036096         0.060474
 O         2.886167         2.109916         0.379279
 C         2.531263         0.781735         0.908337
 O         2.310743         0.337240        -1.048822
 H        -0.559046        -0.223776         1.034056
 H        -0.380368         1.181289        -0.037720
 H        -0.560731        -0.529539        -0.636257
 H         2.259314        -1.920006         1.188980
 H         2.151093        -1.801587        -0.709782
 H         5.336475         0.117895         0.635676
 H         5.181457         0.412827        -1.195362
 H         4.913553         2.375768         0.876300
 H         4.577673         2.666834        -0.771579
 H         2.557202         0.707953         2.003464
