19
Iteration:  2262charge 0 multiplicity 1
 C        -0.065635         0.226174         0.092045
 C         1.454642        -0.018174         0.186208
 C         2.450412        -1.349776         0.222314
 C         3.370647        -0.120905        -0.013358
 C         4.691514         0.546022        -0.272137
 C         4.284986         1.997408         0.005026
 O         2.840063         2.061693         0.570070
 C         2.548269         0.754918         0.958354
 O         2.183184         0.324328        -1.090172
 H        -0.291695         0.401330         1.141668
 H        -0.321192         1.210856        -0.337943
 H        -0.611673        -0.499618        -0.435610
 H         2.803923        -1.740713         1.246200
 H         2.262582        -2.040052        -0.530692
 H         5.294467         0.172068         0.566433
 H         5.165307         0.313026        -1.261595
 H         5.038223         2.333153         0.782448
 H         4.352487         2.618631        -0.949701
 H         2.631376         0.675715         1.988209
