19
Iteration:  3231
 C         0.023236         0.107806         0.009601
 C         1.487864         0.010215         0.133930
 C         2.424263        -1.276787         0.281853
 C         3.235130        -0.109510        -0.058171
 C         4.577959         0.441072        -0.280875
 C         4.256715         1.984120         0.046453
 O         2.903630         2.128717         0.599032
 C         2.610012         0.846162         1.011816
 O         2.247464         0.316398        -1.089692
 H        -0.415052        -0.128712         1.007702
 H        -0.341785         1.105575        -0.201639
 H        -0.359505        -0.607983        -0.723800
 H         2.462867        -1.699946         1.260882
 H         2.172980        -2.011309        -0.455984
 H         5.308964         0.000836         0.486791
 H         5.036762         0.345655        -1.302038
 H         4.859875         2.439689         0.753215
 H         4.246112         2.663386        -0.828165
 H         2.749061         0.787512         2.148400
