19
Iteration:  3644
 C        -0.028081         0.245087        -0.004512
 C         1.480040        -0.019446         0.078689
 C         2.303706        -1.347596         0.403821
 C         3.312593        -0.162180        -0.030209
 C         4.689156         0.548039        -0.245458
 C         4.131044         2.099738        -0.194882
 O         2.978160         2.083436         0.785074
 C         2.522805         0.721255         1.025016
 O         2.352495         0.287130        -1.144650
 H        -0.331564         0.210494         1.010367
 H        -0.133892         1.311801        -0.353524
 H        -0.605172        -0.408736        -0.696900
 H         2.298966        -1.688182         1.398532
 H         2.353271        -2.202492        -0.280787
 H         5.466884         0.137475         0.553505
 H         5.084789         0.235021        -1.314624
 H         4.803048         2.886144         0.173137
 H         3.801129         2.215075        -1.219259
 H         2.562465         0.406501         2.130502
