19
Iteration:   883
 C         0.035544         0.306265        -0.073150
 C         1.503718         0.044130         0.143845
 C         2.289550        -1.361413         0.371988
 C         3.330349        -0.174508        -0.128955
 C         4.765486         0.616505        -0.184731
 C         4.153459         2.000949        -0.079957
 O         2.898679         2.062132         0.821501
 C         2.567613         0.682525         0.882719
 O         2.237704         0.258979        -1.078633
 H        -0.565165        -0.169722         0.722846
 H        -0.221283         1.344272         0.160168
 H        -0.375800         0.007583        -1.020001
 H         2.526383        -1.966773         1.198122
 H         2.137602        -1.835357        -0.537049
 H         5.471006         0.307738         0.668700
 H         5.135182         0.472791        -1.191417
 H         4.860860         2.811560         0.145354
 H         3.918185         2.172811        -1.130656
 H         2.702908         0.391012         1.958745
