19
Iteration:   828
 C        -0.048000         0.119403        -0.079982
 C         1.434797         0.027790         0.154783
 C         2.321468        -1.279375         0.235708
 C         3.342985        -0.118895        -0.042368
 C         4.711032         0.486296        -0.284789
 C         4.187720         2.022082        -0.082774
 O         3.063984         2.112170         0.859949
 C         2.449578         0.745927         1.082004
 O         2.283174         0.342702        -1.130566
 H        -0.690899        -0.059061         0.797655
 H        -0.276319         1.087212        -0.551517
 H        -0.282201        -0.579336        -0.871218
 H         2.449595        -1.742533         1.187581
 H         2.276918        -2.018200        -0.472770
 H         5.499800         0.176993         0.456375
 H         4.881662         0.090941        -1.325435
 H         5.033554         2.679964         0.251809
 H         3.932765         2.343160        -1.108611
 H         2.352305         0.758899         2.219382
