19
Iteration:  1617
 C        -0.052077         0.140577         0.031004
 C         1.445222         0.017213         0.127477
 C         2.412890        -1.263715         0.249451
 C         3.277087        -0.066759        -0.044823
 C         4.630356         0.461481        -0.316904
 C         4.267199         1.983247        -0.013071
 O         2.957170         2.074068         0.724053
 C         2.583947         0.778720         1.004240
 O         2.214038         0.344980        -1.075292
 H        -0.526550        -0.448172         0.825916
 H        -0.393861         1.166694        -0.062362
 H        -0.167008        -0.468674        -0.878965
 H         2.465531        -1.750237         1.260950
 H         2.421935        -1.952488        -0.552791
 H         5.414652         0.267816         0.445968
 H         5.206826         0.364380        -1.284906
 H         5.010293         2.691225         0.423143
 H         3.945295         2.390685        -1.028064
 H         2.626302         0.479017         2.061209
