19
Iteration:  3055charge 0 multiplicity 1
 C        -0.059128         0.151805         0.024877
 C         1.495884         0.047383         0.115156
 C         2.320624        -1.317577         0.329373
 C         3.324573        -0.209882        -0.017026
 C         4.587908         0.556933        -0.218814
 C         4.191659         2.033067        -0.181306
 O         3.021391         2.142652         0.829000
 C         2.581843         0.746306         0.939184
 O         2.325870         0.307754        -1.155518
 H        -0.550300        -0.218232         0.993305
 H        -0.399427         1.105535        -0.333546
 H        -0.442356        -0.517138        -0.686907
 H         2.447679        -1.832531         1.241602
 H         1.989197        -1.988228        -0.458266
 H         5.417845         0.275558         0.541395
 H         4.913516         0.342756        -1.234638
 H         4.950201         2.634871         0.315501
 H         3.696928         2.487302        -1.040313
 H         2.630560         0.461770         2.026863
