19
Iteration:  3301
 C        -0.015692         0.173899         0.011573
 C         1.504944        -0.052410         0.152655
 C         2.391693        -1.251757         0.350622
 C         3.310303        -0.105789        -0.111065
 C         4.636093         0.514750        -0.189264
 C         4.145522         2.057016        -0.037219
 O         3.028775         2.060063         0.733414
 C         2.553272         0.786652         0.921179
 O         2.181253         0.231828        -1.154324
 H        -0.771510         0.145779         0.818891
 H         0.059113         1.276499        -0.210762
 H        -0.453650        -0.269688        -0.899371
 H         2.599662        -1.613041         1.381299
 H         2.343563        -2.179298        -0.230641
 H         5.375922         0.197866         0.638119
 H         5.203265         0.427567        -1.179355
 H         4.924132         2.868522         0.389552
 H         4.050523         2.505506        -1.090669
 H         2.514829         0.545784         1.970802
