19
Iteration:  4267
 C        -0.057818         0.096427         0.022758
 C         1.438277        -0.030731         0.069571
 C         2.252178        -1.256061         0.424393
 C         3.351280        -0.126207        -0.006685
 C         4.657584         0.598892        -0.351043
 C         4.331880         2.084927         0.102408
 O         2.994843         2.150727         0.650260
 C         2.548863         0.762621         0.926810
 O         2.253142         0.163216        -1.147593
 H        -0.616671        -0.201285         0.889625
 H        -0.376955         1.133790        -0.247911
 H        -0.476721        -0.516979        -0.794888
 H         2.222770        -1.536936         1.444263
 H         2.274163        -2.047117        -0.386360
 H         5.628543         0.225577         0.105576
 H         4.781991         0.452300        -1.493882
 H         4.912282         2.419103         0.926844
 H         4.308074         2.787600        -0.682809
 H         2.632257         0.749969         1.971253
