19
Iteration:  3436charge 0 multiplicity 1
 C         0.034545         0.292097         0.075782
 C         1.506681        -0.039718         0.069114
 C         2.283927        -1.358826         0.417596
 C         3.300469        -0.070335        -0.045842
 C         4.585272         0.611469        -0.322443
 C         4.276089         2.028912         0.055312
 O         2.847785         2.054434         0.572196
 C         2.479157         0.720898         0.945329
 O         2.415322         0.199079        -1.098390
 H        -0.372471        -0.054918         1.029781
 H        -0.040347         1.393825         0.022319
 H        -0.539942        -0.152884        -0.762032
 H         2.535361        -1.682547         1.429773
 H         2.124375        -2.142847        -0.390606
 H         5.364869         0.183167         0.257756
 H         4.938209         0.610453        -1.321943
 H         4.998438         2.602510         0.780061
 H         4.114403         2.540770        -0.885329
 H         2.595305         0.476745         1.950979
