19
Iteration:  1074
 C         0.001333         0.313587         0.024259
 C         1.454948        -0.156481         0.056802
 C         2.495903        -1.348410         0.251834
 C         3.207256        -0.039180        -0.002272
 C         4.610062         0.434930        -0.169384
 C         4.165730         1.892385        -0.212747
 O         2.907027         2.153251         0.735429
 C         2.587636         0.786521         1.079504
 O         2.298103         0.372017        -1.094637
 H        -0.533989        -0.212594         0.825443
 H         0.052511         1.382661         0.208888
 H        -0.581529         0.095425        -0.894992
 H         2.619159        -1.958230         1.075071
 H         2.480645        -1.930001        -0.643836
 H         5.245890         0.267045         0.753695
 H         5.303102         0.137187        -1.095002
 H         4.817545         2.608447         0.336325
 H         3.934603         2.120323        -1.331352
 H         2.624622         0.538819         2.214104
