19
Iteration:  3647charge 0 multiplicity 1
 C        -0.007046         0.222955        -0.011393
 C         1.474471        -0.003507         0.113444
 C         2.319947        -1.334569         0.372544
 C         3.287668        -0.156705        -0.011440
 C         4.661754         0.532270        -0.253206
 C         4.145972         2.074394        -0.191245
 O         2.960405         2.097445         0.786863
 C         2.551439         0.726827         1.020918
 O         2.354571         0.292208        -1.142543
 H        -0.507145         0.228774         1.017435
 H        -0.099469         1.203295        -0.440836
 H        -0.522650        -0.421045        -0.696693
 H         2.405409        -1.682893         1.417611
 H         2.233111        -2.151370        -0.272183
 H         5.361647         0.241677         0.471227
 H         5.118970         0.170389        -1.217379
 H         4.897252         2.804070         0.209329
 H         3.794653         2.317724        -1.272831
 H         2.593660         0.366326         2.038128
