19
Iteration:  3388charge 0 multiplicity 1
 C        -0.078777         0.137528        -0.054868
 C         1.453604        -0.055355         0.145646
 C         2.394368        -1.309608         0.373077
 C         3.236870        -0.040949        -0.122332
 C         4.611577         0.588291        -0.152453
 C         4.241964         1.990099        -0.093197
 O         3.088071         2.092634         0.751231
 C         2.524966         0.818768         0.910566
 O         2.234988         0.238724        -1.110761
 H        -0.560711        -0.195418         0.898032
 H        -0.228397         1.209296        -0.226850
 H        -0.444404        -0.446063        -0.901475
 H         2.457414        -1.565462         1.420432
 H         2.361710        -2.033084        -0.386724
 H         5.389761         0.202659         0.635384
 H         5.204868         0.462653        -1.121047
 H         5.021997         2.623769         0.462698
 H         3.950527         2.386999        -1.097981
 H         2.585826         0.557262         2.027854
