19
Iteration:  2604charge 0 multiplicity 1
 C         0.015070         0.245387         0.038705
 C         1.526476         0.038727         0.070567
 C         2.282324        -1.332362         0.262486
 C         3.346552        -0.229526        -0.010907
 C         4.622564         0.574304        -0.252301
 C         4.024784         2.012207        -0.170855
 O         2.945830         2.056086         0.741407
 C         2.541462         0.752977         1.056994
 O         2.443947         0.307866        -1.071083
 H        -0.446473        -0.058124         1.019017
 H        -0.239830         1.256471        -0.252648
 H        -0.571795        -0.473035        -0.665009
 H         2.607050        -1.715754         1.284539
 H         2.197273        -2.181043        -0.474963
 H         5.484792         0.283377         0.382054
 H         4.949687         0.552159        -1.311635
 H         4.698591         2.777065         0.283318
 H         3.818621         2.380398        -1.109836
 H         2.483573         0.662825         2.221634
