19
Iteration:  2824charge 0 multiplicity 1
 C        -0.054786         0.046324        -0.019682
 C         1.488519         0.019975         0.148062
 C         2.339490        -1.287884         0.234194
 C         3.351136        -0.097932        -0.032979
 C         4.628600         0.492930        -0.233375
 C         4.168739         2.005501        -0.126432
 O         3.027713         2.110272         0.777506
 C         2.587960         0.767147         1.034215
 O         2.226882         0.419442        -1.074625
 H        -0.758793         0.175891         0.795655
 H        -0.213038         1.022625        -0.589002
 H        -0.406766        -0.759478        -0.725858
 H         2.467101        -1.843451         1.169394
 H         2.315288        -2.092837        -0.487502
 H         5.319089         0.206097         0.605139
 H         5.212573         0.336749        -1.205052
 H         5.052648         2.710338         0.203640
 H         3.735828         2.015798        -1.107222
 H         2.610855         0.459535         2.089479
