19
Iteration:  2513charge 0 multiplicity 1
 C        -0.067420        -0.006372         0.065762
 C         1.498211         0.070059         0.064656
 C         2.265125        -1.213409         0.388889
 C         3.308616        -0.062023        -0.011639
 C         4.563327         0.480524        -0.398970
 C         4.325268         2.019842         0.011763
 O         2.993324         2.104415         0.735502
 C         2.521315         0.849383         0.898888
 O         2.314280         0.277269        -1.104730
 H        -0.337907        -0.532554         1.066031
 H        -0.599360         1.005591        -0.026583
 H        -0.425544        -0.641371        -0.727867
 H         2.362549        -1.752722         1.315226
 H         2.347164        -1.943594        -0.461339
 H         5.438169         0.102190         0.160437
 H         5.000423         0.486761        -1.396216
 H         5.151695         2.422035         0.690864
 H         4.248729         2.643158        -0.847132
 H         2.442032         0.504307         1.936994
