19
Iteration:  1951
 C        -0.031933         0.057986         0.189218
 C         1.446617        -0.005886         0.099883
 C         2.427471        -1.264595         0.281041
 C         3.278318        -0.036460        -0.028057
 C         4.614968         0.476525        -0.346845
 C         4.370401         1.946884         0.086861
 O         2.848339         2.085305         0.613619
 C         2.481873         0.783436         0.903995
 O         2.323272         0.408676        -1.159172
 H        -0.324833        -0.066973         1.246548
 H        -0.400191         1.060222        -0.085399
 H        -0.576178        -0.560557        -0.443058
 H         2.430842        -1.816808         1.189990
 H         2.294714        -1.834666        -0.572057
 H         5.372056        -0.011434         0.246610
 H         4.880437         0.220484        -1.365851
 H         5.147667         2.303301         0.897927
 H         4.279732         2.720367        -0.650084
 H         2.617648         0.643548         2.057686
