19
Iteration:  1072charge 0 multiplicity 1
 C        -0.003483         0.316430         0.023073
 C         1.456482        -0.151450         0.078835
 C         2.481596        -1.356601         0.265196
 C         3.201649        -0.060908        -0.004301
 C         4.623121         0.434980        -0.160456
 C         4.156711         1.917458        -0.212311
 O         2.899493         2.147073         0.731110
 C         2.589908         0.762666         1.057094
 O         2.309440         0.388082        -1.102911
 H        -0.472336        -0.175121         0.864908
 H         0.066471         1.372483         0.218765
 H        -0.542986         0.099114        -0.925687
 H         2.670708        -1.972546         1.127037
 H         2.455820        -1.928980        -0.704679
 H         5.247425         0.244049         0.822345
 H         5.234888         0.158697        -1.113213
 H         4.846324         2.585694         0.271659
 H         3.935308         2.153806        -1.285236
 H         2.661748         0.602515         2.144347
