19
Iteration:  4985charge 0 multiplicity 1
 C         0.057549         0.283856         0.012665
 C         1.504585        -0.015082         0.093300
 C         2.384664        -1.345008         0.325160
 C         3.332831        -0.146349         0.055643
 C         4.649397         0.552843        -0.175821
 C         4.173415         2.012903        -0.117250
 O         2.811739         2.048133         0.569743
 C         2.479795         0.753087         1.002069
 O         2.356674         0.310699        -1.095650
 H        -0.176776         0.030212         1.026809
 H        -0.229104         1.294892        -0.118333
 H        -0.520605        -0.336315        -0.618135
 H         2.414959        -1.769358         1.333433
 H         2.363456        -2.273150        -0.288590
 H         5.372319         0.223165         0.629997
 H         5.080159         0.364879        -1.225616
 H         4.817898         2.681969         0.486071
 H         4.210769         2.543366        -1.176739
 H         2.504853         0.394408         2.046368
