19
Iteration:   100charge 0 multiplicity 1
 C        -0.037812         0.118341        -0.133781
 C         1.501206         0.149424         0.157343
 C         2.276558        -1.291980         0.398178
 C         3.292528        -0.197528         0.005485
 C         4.626156         0.549959        -0.394913
 C         4.293512         2.037378        -0.063866
 O         2.955876         2.086240         0.820999
 C         2.629878         0.746349         1.017491
 O         2.258980         0.280445        -1.069466
 H        -0.715168        -0.359757         0.562505
 H        -0.556400         0.986787        -0.462225
 H        -0.076263        -0.572275        -0.980442
 H         2.332295        -1.881498         1.307463
 H         2.105568        -1.908318        -0.440402
 H         5.449963         0.216329         0.149248
 H         4.722824         0.625870        -1.410118
 H         5.026747         2.727182         0.346899
 H         3.944871         2.608783        -0.924444
 H         2.868798         0.399320         2.043203
