19
Iteration:  4572
 C        -0.045098        -0.099322        -0.166033
 C         1.404435         0.026839         0.216674
 C         2.369720        -1.195690         0.493502
 C         3.225492        -0.100917        -0.043677
 C         4.576737         0.519744        -0.431280
 C         4.396989         1.970707         0.160510
 O         2.958774         2.112343         0.492633
 C         2.621429         0.909772         1.006487
 O         2.217111         0.337486        -1.028378
 H        -0.764536         0.036756         0.625443
 H        -0.097169         0.753043        -0.878282
 H        -0.149905        -1.082666        -0.618068
 H         2.589360        -1.518456         1.541436
 H         2.187019        -1.932783        -0.269016
 H         5.428174         0.026943         0.038457
 H         4.774446         0.381577        -1.527967
 H         4.895949         2.102880         1.178645
 H         4.522104         2.903438        -0.464884
 H         2.721539         0.814847         2.144042
