19
Iteration:  4118
 C         0.068420         0.246300        -0.085730
 C         1.517700        -0.035413         0.294567
 C         2.345240        -1.388864         0.268498
 C         3.314078        -0.083926        -0.051959
 C         4.631181         0.553892        -0.242308
 C         4.196463         2.015223        -0.087873
 O         2.851822         2.053264         0.600030
 C         2.627330         0.731379         1.149628
 O         2.236895         0.311998        -1.066603
 H        -0.732199        -0.095226         0.487650
 H        -0.058531         1.316303        -0.264284
 H        -0.030719        -0.215794        -1.079647
 H         2.452185        -1.972777         1.211900
 H         2.094168        -2.059246        -0.592631
 H         5.405375         0.297381         0.476240
 H         4.985216         0.377887        -1.288709
 H         4.769815         2.806196         0.392344
 H         3.922177         2.623575        -0.963657
 H         2.887290         0.660777         2.189642
