19
Iteration:  1313
 C        -0.014738         0.043102        -0.032697
 C         1.453801         0.002745         0.054540
 C         2.307246        -1.197690         0.191253
 C         3.306219        -0.140261         0.126111
 C         4.532999         0.511632        -0.264300
 C         4.175746         1.969943        -0.124858
 O         3.107024         2.116943         0.829638
 C         2.521728         0.832980         1.037376
 O         2.335276         0.327779        -1.135181
 H        -0.305507        -0.314277         1.011207
 H        -0.147546         1.167955        -0.105381
 H        -0.546809        -0.592127        -0.776843
 H         2.379216        -1.639623         1.321453
 H         2.394360        -1.985050        -0.563505
 H         5.420132         0.268750         0.285596
 H         4.925962         0.231050        -1.312855
 H         4.987125         2.598462         0.225650
 H         3.753000         2.365355        -1.128038
 H         2.196182         0.569610         2.122657
