19
Iteration:  3250
 C         0.008318         0.212851         0.065241
 C         1.460591        -0.052870         0.124586
 C         2.336265        -1.346310         0.353585
 C         3.323650        -0.093122         0.050558
 C         4.654890         0.552261        -0.345619
 C         4.291467         2.047351         0.015284
 O         2.905367         2.053220         0.583393
 C         2.415478         0.743620         0.924315
 O         2.335780         0.336574        -1.081812
 H        -0.538985        -0.027723         1.055554
 H        -0.240646         1.238595        -0.084013
 H        -0.394099        -0.393005        -0.732138
 H         2.450820        -1.878216         1.407298
 H         2.286100        -1.974806        -0.519847
 H         5.660396         0.421650         0.055135
 H         4.860480         0.338632        -1.350157
 H         5.028140         2.381443         0.771621
 H         4.274561         2.549683        -0.917605
 H         2.387868         0.393240         2.066226
