19
Iteration:    72charge 0 multiplicity 1
 C         0.028937         0.208804         0.012120
 C         1.462540        -0.101632         0.091034
 C         2.458750        -1.332374         0.295530
 C         3.227401        -0.118000        -0.036082
 C         4.577770         0.489424        -0.249448
 C         4.220905         2.031656        -0.076509
 O         2.985442         2.091309         0.699730
 C         2.476810         0.758567         0.926471
 O         2.252079         0.379627        -1.020072
 H        -0.435230         0.191524         1.051110
 H        -0.096557         1.262793        -0.430044
 H        -0.585389        -0.472444        -0.657637
 H         2.559668        -1.868774         1.271716
 H         2.495584        -2.083948        -0.569989
 H         5.205103         0.201863         0.751641
 H         5.130098         0.289637        -1.287751
 H         5.077829         2.497564         0.496928
 H         4.197205         2.738176        -1.017599
 H         2.731284         0.522470         1.996161
