19
Iteration:  4231
 C         0.016556         0.002864        -0.126267
 C         1.485905        -0.011306         0.241610
 C         2.407458        -1.260734         0.314707
 C         3.239728        -0.121692        -0.028984
 C         4.629714         0.351080        -0.384888
 C         4.270894         1.964282        -0.004529
 O         2.927595         2.206182         0.656967
 C         2.492920         0.881397         1.059220
 O         2.215932         0.459010        -0.990616
 H        -0.711604         0.051457         0.683800
 H        -0.039785         0.837869        -0.752517
 H        -0.092133        -0.849424        -0.720432
 H         2.720979        -1.766387         1.267962
 H         2.520726        -2.074920        -0.389420
 H         5.539654         0.039489         0.323339
 H         4.789453         0.187909        -1.446245
 H         5.167122         2.291277         0.521892
 H         4.343553         2.405369        -1.038138
 H         2.460455         0.628386         2.081525
