19
Iteration:   592
 C        -0.022448         0.218102         0.021090
 C         1.489465         0.031187         0.070564
 C         2.403279        -1.313909         0.210151
 C         3.283375        -0.098061        -0.086894
 C         4.609963         0.523292        -0.231924
 C         4.142192         1.972367        -0.071655
 O         3.009813         2.050466         0.859027
 C         2.496554         0.727110         0.977377
 O         2.341382         0.337120        -1.139629
 H        -0.438951         0.202036         1.037378
 H        -0.192714         1.147852        -0.557515
 H        -0.510285        -0.589615        -0.532719
 H         2.597179        -1.725200         1.228339
 H         2.009739        -2.116430        -0.340496
 H         5.231477         0.390218         0.703748
 H         5.186585         0.558029        -1.110534
 H         4.922100         2.526473         0.391516
 H         3.833313         2.399255        -1.002920
 H         2.441297         0.335934         2.043574
