19
Iteration:  3457
 C         0.014723         0.200696         0.090176
 C         1.455092        -0.019819         0.111132
 C         2.310976        -1.349164         0.346617
 C         3.335364        -0.170920         0.022261
 C         4.716004         0.471587        -0.325384
 C         4.225680         2.050019         0.043125
 O         2.826349         2.089022         0.517434
 C         2.570816         0.776550         0.950218
 O         2.326854         0.346621        -1.095222
 H        -0.554769         0.083493         1.035458
 H        -0.165710         1.224958        -0.261519
 H        -0.508302        -0.416090        -0.671595
 H         2.299147        -1.682321         1.376462
 H         2.229192        -2.111239        -0.444171
 H         5.614842         0.211287         0.333380
 H         4.975500         0.396103        -1.364631
 H         4.743902         2.319296         1.068448
 H         4.231390         2.813665        -0.719056
 H         2.661033         0.731747         2.061000
