19
Iteration:  5000
 C         0.069939         0.218552         0.018014
 C         1.540514         0.031222         0.040410
 C         2.443914        -1.319817         0.438824
 C         3.346580        -0.147144         0.033482
 C         4.603340         0.402138        -0.285642
 C         4.109190         1.974889        -0.001428
 O         2.777062         2.107261         0.607352
 C         2.529979         0.765978         0.945406
 O         2.380379         0.351878        -1.090572
 H        -0.613815        -0.062801         0.887297
 H         0.018955         1.310444        -0.254673
 H        -0.379035        -0.301279        -0.917239
 H         2.490448        -1.532764         1.525315
 H         2.290192        -2.029122        -0.389901
 H         5.493340         0.189626         0.242302
 H         4.821310         0.254485        -1.288615
 H         4.839311         2.555295         0.597478
 H         3.826238         2.415403        -0.972535
 H         2.495653         0.793428         2.068063
