19
Iteration:  1808charge 0 multiplicity 1
 C        -0.055672         0.041421         0.070774
 C         1.428499        -0.052919         0.149807
 C         2.364305        -1.264830         0.226655
 C         3.269339        -0.062117        -0.084211
 C         4.674989         0.559739        -0.159982
 C         4.249140         1.930555        -0.169743
 O         3.060111         2.112005         0.781728
 C         2.547980         0.788987         0.984556
 O         2.218784         0.434337        -1.141631
 H        -0.647528        -0.425023         0.907100
 H        -0.283342         1.148450         0.117371
 H        -0.486694        -0.278374        -0.849310
 H         2.592065        -1.729930         1.155139
 H         2.311687        -1.975638        -0.570026
 H         5.303644         0.169811         0.629917
 H         5.244250         0.202572        -1.056094
 H         5.074751         2.465090         0.418616
 H         3.735854         2.139411        -1.125682
 H         2.474695         0.313216         1.953172
