19
Iteration:  1573charge 0 multiplicity 1
 C        -0.068078         0.328966         0.014667
 C         1.472904         0.010037         0.059023
 C         2.410455        -1.373760         0.330437
 C         3.348580        -0.103093         0.017147
 C         4.659319         0.616222        -0.326677
 C         4.174068         2.089026        -0.116963
 O         2.954349         1.996666         0.819297
 C         2.533034         0.652055         1.013631
 O         2.302390         0.246748        -1.145673
 H        -0.485346         0.151784         1.034489
 H        -0.261574         1.428676        -0.176143
 H        -0.599820        -0.368813        -0.650493
 H         2.393244        -1.819881         1.384215
 H         2.330579        -2.051062        -0.462515
 H         5.577762         0.122638         0.146551
 H         4.969638         0.315707        -1.415964
 H         4.862863         2.746026         0.501003
 H         3.779996         2.617809        -1.067430
 H         2.487643         0.375144         2.071159
