19
Iteration:   822charge 0 multiplicity 1
 C        -0.053807         0.078506        -0.077895
 C         1.413789         0.034104         0.177265
 C         2.304742        -1.197190         0.258753
 C         3.317555        -0.143823        -0.097843
 C         4.697541         0.511406        -0.239001
 C         4.180972         2.014553        -0.068883
 O         3.093574         2.105147         0.837141
 C         2.506717         0.738991         1.057346
 O         2.273268         0.338518        -1.153350
 H        -0.617086        -0.071935         0.843905
 H        -0.163963         1.052824        -0.575202
 H        -0.332045        -0.694585        -0.821675
 H         2.493867        -1.713509         1.249582
 H         2.103640        -2.016753        -0.562168
 H         5.428218         0.179266         0.498760
 H         5.088973         0.142223        -1.184028
 H         4.964368         2.576098         0.455009
 H         3.893346         2.410567        -1.057411
 H         2.387580         0.654720         2.136539
