19
Iteration:  3157charge 0 multiplicity 1
 C        -0.019789         0.052092         0.030945
 C         1.457669         0.056372         0.106117
 C         2.304386        -1.298478         0.319928
 C         3.268371        -0.098029        -0.098793
 C         4.644861         0.507843        -0.291148
 C         4.281929         1.974980        -0.088476
 O         2.980249         2.119040         0.737754
 C         2.438360         0.837161         1.027874
 O         2.373763         0.320866        -1.098830
 H        -0.261834        -0.090095         1.033861
 H        -0.422414         1.055301        -0.097237
 H        -0.505884        -0.723310        -0.598122
 H         2.566956        -1.705354         1.241193
 H         2.120965        -2.033018        -0.459573
 H         5.312338         0.062444         0.355049
 H         5.099725         0.332133        -1.289112
 H         5.085826         2.546491         0.419842
 H         3.866701         2.546824        -0.951836
 H         2.489525         0.642043         2.080722
