19
Iteration:  2171
 C        -0.073167        -0.005830         0.003373
 C         1.423343        -0.043320         0.236570
 C         2.434019        -1.240270         0.361179
 C         3.236984         0.009201        -0.092327
 C         4.594054         0.456429        -0.384730
 C         4.337009         1.971247         0.122580
 O         3.008578         2.194597         0.561738
 C         2.558361         0.845189         0.948611
 O         2.213687         0.321776        -1.064138
 H        -0.619958        -0.443974         0.840396
 H        -0.562506         0.945351        -0.098533
 H        -0.249227        -0.576468        -0.988152
 H         2.780055        -1.800174         1.290190
 H         2.280656        -1.955579        -0.569477
 H         5.147084        -0.096375         0.379347
 H         4.871500         0.358910        -1.447670
 H         5.027407         2.202331         1.004104
 H         4.459353         2.666175        -0.631360
 H         2.702350         0.587707         1.949338
