19
Iteration:   823charge 0 multiplicity 1
 C        -0.053219         0.084930        -0.076251
 C         1.413561         0.034208         0.177441
 C         2.305424        -1.204155         0.253638
 C         3.326069        -0.142893        -0.093177
 C         4.703902         0.509880        -0.242995
 C         4.180282         2.017672        -0.070536
 O         3.090601         2.108512         0.840488
 C         2.494790         0.735659         1.067314
 O         2.274072         0.338711        -1.153220
 H        -0.628566        -0.078320         0.843961
 H        -0.167157         1.058394        -0.586116
 H        -0.329509        -0.686131        -0.848577
 H         2.496918        -1.728817         1.250339
 H         2.134638        -2.031482        -0.552745
 H         5.435709         0.182063         0.477395
 H         5.054066         0.097927        -1.224940
 H         4.964977         2.579832         0.426160
 H         3.903582         2.392491        -1.059570
 H         2.377356         0.691326         2.134364
