19
Iteration:  3441
 C        -0.002890         0.282304         0.060803
 C         1.520635        -0.095231         0.111196
 C         2.257733        -1.348866         0.384986
 C         3.301827        -0.055009        -0.081783
 C         4.639788         0.570648        -0.335044
 C         4.294549         2.082065         0.077328
 O         2.802764         2.050073         0.544166
 C         2.487291         0.724402         0.970209
 O         2.433250         0.247741        -1.070715
 H        -0.292289        -0.029837         1.087086
 H        -0.012565         1.384394         0.026488
 H        -0.555944        -0.231494        -0.721198
 H         2.394261        -1.642778         1.461769
 H         2.083737        -2.224609        -0.279637
 H         5.472524        -0.031731         0.215293
 H         4.953618         0.483872        -1.451263
 H         4.960707         2.582883         0.658394
 H         4.278643         2.594439        -0.929510
 H         2.474829         0.474089         2.134217
