19
Iteration:   148
 C        -0.130917         0.098576        -0.078685
 C         1.410862         0.001116         0.021528
 C         2.447787        -1.289230         0.293941
 C         3.246055        -0.026593        -0.017503
 C         4.683695         0.477911        -0.177592
 C         4.221519         1.991753        -0.117920
 O         3.139290         2.152620         0.867961
 C         2.554319         0.791943         0.941445
 O         2.190052         0.306620        -1.106054
 H        -0.536274        -0.636610         0.701657
 H        -0.582433         1.126412         0.167577
 H        -0.691495        -0.375967        -0.944664
 H         2.631091        -1.716155         1.321217
 H         2.493685        -2.138984        -0.462454
 H         5.278719         0.155780         0.761477
 H         4.915221         0.053021        -1.209881
 H         4.984125         2.710942         0.229677
 H         3.987558         2.417417        -1.102626
 H         2.577736         0.569423         2.003597
