19
Iteration:   407
 C         0.088789         0.281150        -0.115867
 C         1.545483        -0.006530         0.131317
 C         2.278228        -1.365039         0.261154
 C         3.283533        -0.075331         0.004710
 C         4.607338         0.623440        -0.379830
 C         4.249421         2.062267        -0.032097
 O         2.923992         1.979552         0.778992
 C         2.585258         0.654581         1.112612
 O         2.238402         0.294072        -1.064657
 H        -0.592037         0.226412         0.748927
 H         0.108975         1.178975        -0.788863
 H        -0.256932        -0.521282        -0.778400
 H         2.292366        -1.915375         1.263102
 H         2.098397        -1.971079        -0.606023
 H         5.356928         0.354917         0.453776
 H         4.794399         0.450495        -1.428823
 H         4.911431         2.748761         0.662407
 H         3.858986         2.584675        -0.912502
 H         2.695868         0.437223         2.215473
