19
Iteration:  2141charge 0 multiplicity 1
 C         0.008529         0.032504         0.083694
 C         1.472893        -0.003479         0.085414
 C         2.255027        -1.276732         0.349489
 C         3.281469        -0.056863         0.023959
 C         4.614611         0.608067        -0.382405
 C         4.310811         1.974144         0.084478
 O         2.973039         2.090039         0.560501
 C         2.563551         0.772956         0.975317
 O         2.265882         0.357117        -1.099912
 H        -0.234733        -0.319981         1.087298
 H        -0.580876         0.911300        -0.157749
 H        -0.210844        -0.632323        -0.796974
 H         2.214350        -1.659787         1.348075
 H         2.188950        -2.035481        -0.443353
 H         5.340915         0.077763         0.262021
 H         4.878711         0.370734        -1.476569
 H         5.095172         2.418714         0.838968
 H         4.416206         2.719253        -0.764110
 H         2.508706         0.445891         2.123864
