19
Iteration:  3974charge 0 multiplicity 1
 C         0.066331         0.265912        -0.026118
 C         1.514376        -0.013900         0.068777
 C         2.324914        -1.318201         0.380673
 C         3.357724        -0.117736        -0.035896
 C         4.577955         0.567191        -0.329674
 C         4.168777         2.062974         0.051738
 O         2.862797         2.080996         0.729770
 C         2.593018         0.774659         0.994238
 O         2.327885         0.148391        -1.150541
 H        -0.442585        -0.061415         0.879622
 H        -0.043814         1.344337        -0.173182
 H        -0.381089        -0.184299        -0.886998
 H         2.422958        -1.762980         1.381185
 H         2.173653        -2.201204        -0.325643
 H         5.389336         0.226053         0.303674
 H         4.802220         0.480673        -1.458447
 H         4.888038         2.576779         0.631412
 H         3.907550         2.702006        -0.866719
 H         2.519621         0.603525         2.038096
