19
Iteration:  2372
 C        -0.037696         0.087565        -0.029696
 C         1.471119         0.035052         0.239924
 C         2.395516        -1.295998         0.322845
 C         3.301898        -0.067772        -0.101557
 C         4.612160         0.544525        -0.216637
 C         4.175626         1.963091        -0.181481
 O         3.002292         2.065468         0.700326
 C         2.593194         0.726705         1.027440
 O         2.211437         0.385589        -1.063642
 H        -0.797198        -0.344535         0.677690
 H        -0.182569         1.213638        -0.050284
 H        -0.256395        -0.166629        -1.028201
 H         2.613696        -1.798805         1.385293
 H         2.084623        -2.031558        -0.464809
 H         5.344517         0.224657         0.541605
 H         5.224985         0.393244        -1.131604
 H         5.003574         2.541079         0.312306
 H         4.098831         2.330534        -1.240918
 H         2.823667         0.556846         2.121115
