19
Iteration:  1429charge 0 multiplicity 1
 C         0.050400         0.100293         0.027740
 C         1.489963        -0.016610         0.179081
 C         2.266581        -1.348455         0.304579
 C         3.263451        -0.073129        -0.128389
 C         4.615647         0.522139        -0.336060
 C         4.271798         2.032325         0.107448
 O         2.953031         2.147800         0.693992
 C         2.601690         0.825453         0.951755
 O         2.234971         0.290090        -1.159576
 H        -0.493993        -0.434796         0.825648
 H        -0.392973         1.081335         0.112620
 H        -0.316786        -0.375080        -0.877811
 H         2.391489        -1.623162         1.333600
 H         2.029411        -2.247708        -0.320802
 H         5.339681         0.074587         0.434229
 H         5.175227         0.358132        -1.265502
 H         5.031789         2.508612         0.803846
 H         4.373843         2.602330        -0.833515
 H         2.659868         0.601155         1.993219
