19
Iteration:   862
 C         0.026703         0.276128        -0.090494
 C         1.545119        -0.040589         0.102479
 C         2.318944        -1.320524         0.263823
 C         3.296893        -0.109258         0.039326
 C         4.580412         0.492959        -0.295283
 C         4.067169         2.053405        -0.130105
 O         2.982896         2.012026         0.773092
 C         2.556194         0.709171         1.103672
 O         2.375684         0.329464        -1.075486
 H        -0.719073        -0.094852         0.628591
 H        -0.177319         1.350321        -0.074781
 H        -0.305472        -0.105743        -1.040943
 H         2.367935        -1.606436         1.270237
 H         2.230751        -2.090516        -0.453879
 H         5.374101         0.389557         0.507700
 H         4.957146         0.336490        -1.288774
 H         4.944817         2.605257         0.292972
 H         3.813889         2.550564        -1.102973
 H         2.606174         0.511265         2.220399
