19
Iteration:  2137charge 0 multiplicity 1
 C         0.023554         0.048065         0.076710
 C         1.462221        -0.007130         0.098502
 C         2.283774        -1.269139         0.343366
 C         3.239207        -0.025671         0.012890
 C         4.584224         0.625615        -0.379785
 C         4.285211         2.001279         0.084746
 O         3.005940         2.056614         0.587065
 C         2.557100         0.777199         0.947966
 O         2.286916         0.317206        -1.107951
 H        -0.069090        -0.281391         1.114492
 H        -0.381634         1.054863        -0.108132
 H        -0.387960        -0.713132        -0.710575
 H         2.125487        -1.726849         1.400458
 H         2.135066        -2.046884        -0.537170
 H         5.356225         0.174251         0.268668
 H         4.911557         0.244371        -1.333015
 H         5.089295         2.395744         0.814576
 H         4.357010         2.651299        -0.709582
 H         2.477645         0.520795         1.951335
