19
Iteration:  1982charge 0 multiplicity 1
 C        -0.066957         0.017638         0.064009
 C         1.434008         0.079165         0.078542
 C         2.382768        -1.257479         0.318965
 C         3.264056        -0.098982        -0.123941
 C         4.594670         0.544606        -0.277369
 C         4.352282         2.085945         0.052666
 O         3.072461         2.092802         0.728631
 C         2.550612         0.790056         0.890998
 O         2.182094         0.260687        -1.126565
 H        -0.353132        -0.509617         1.039545
 H        -0.638913         0.986416         0.202513
 H        -0.445244        -0.502187        -0.771370
 H         2.531662        -1.830966         1.313111
 H         2.153132        -1.950200        -0.457495
 H         5.075268         0.150257         0.604468
 H         5.017757         0.385539        -1.268061
 H         5.220262         2.552625         0.528012
 H         4.165353         2.747398        -0.835157
 H         2.588059         0.438632         1.994970
