19
Iteration:  2924charge 0 multiplicity 1
 C         0.070617         0.237934         0.023749
 C         1.484735        -0.055922         0.185158
 C         2.386208        -1.339472         0.276028
 C         3.272982        -0.158216        -0.142819
 C         4.641406         0.537062        -0.284744
 C         4.303286         2.058988         0.106810
 O         2.796412         2.116250         0.559581
 C         2.666923         0.757997         0.969610
 O         2.176405         0.275929        -1.035012
 H        -0.559950        -0.138122         0.903748
 H        -0.139681         1.322258         0.076501
 H        -0.261131        -0.160824        -0.897143
 H         2.493778        -1.778701         1.231372
 H         2.010744        -2.069216        -0.485373
 H         5.279531         0.015748         0.396179
 H         5.136604         0.503122        -1.245999
 H         4.962130         2.583642         0.878381
 H         4.368597         2.571598        -0.877921
 H         2.745499         0.464931         2.052779
