19
Iteration:   387charge 0 multiplicity 1
 C         0.046542         0.344165        -0.072111
 C         1.478146        -0.037256         0.080325
 C         2.390772        -1.344496         0.304237
 C         3.333144        -0.202401        -0.021447
 C         4.588221         0.502796        -0.386914
 C         4.076355         2.070071        -0.018446
 O         2.916287         2.042651         0.821265
 C         2.523073         0.698650         0.995209
 O         2.391783         0.318480        -1.047392
 H        -0.482977         0.126431         0.850074
 H         0.098038         1.386746        -0.432392
 H        -0.434752        -0.139003        -0.895353
 H         2.449206        -1.693602         1.376107
 H         2.309681        -2.124397        -0.400434
 H         5.493993         0.164008         0.088299
 H         4.583686         0.640373        -1.465666
 H         4.878795         2.415412         0.730888
 H         3.827462         2.769059        -0.805525
 H         2.637521         0.343769         2.043284
