19
Iteration:  1184charge 0 multiplicity 1
 C        -0.023666         0.148708         0.015762
 C         1.440973        -0.034906         0.124173
 C         2.374262        -1.290565         0.268758
 C         3.277513        -0.072331         0.026361
 C         4.620213         0.517803        -0.219109
 C         4.300726         1.959311         0.025282
 O         2.957575         2.068026         0.623017
 C         2.630669         0.809744         0.955800
 O         2.172605         0.338726        -1.127309
 H        -0.473398         0.362156         1.002892
 H        -0.251047         1.053092        -0.562623
 H        -0.536953        -0.674625        -0.464593
 H         2.461635        -1.797939         1.213958
 H         2.407605        -1.945910        -0.546424
 H         5.227536         0.247360         0.669807
 H         5.095825         0.410951        -1.282652
 H         4.995431         2.470405         0.707078
 H         4.280847         2.509766        -0.969338
 H         2.779111         0.455066         1.969031
