19
Iteration:  1722
 C         0.019592         0.258554         0.023689
 C         1.523676         0.010234         0.185385
 C         2.493839        -1.404664         0.193258
 C         3.287995        -0.055341        -0.002156
 C         4.560215         0.508031        -0.285634
 C         4.210533         2.066509        -0.090064
 O         2.997820         2.070904         0.765175
 C         2.508943         0.698113         1.006307
 O         2.169149         0.258019        -1.070488
 H        -0.820159         0.461217         0.801462
 H        -0.005428         1.278436        -0.540303
 H        -0.306809        -0.432966        -0.781294
 H         2.518406        -2.000731         1.219648
 H         2.471801        -1.997518        -0.752252
 H         5.427238         0.277501         0.410910
 H         4.800294         0.405433        -1.414051
 H         4.907501         2.731501         0.589949
 H         4.023902         2.588022        -1.089286
 H         2.575307         0.494461         2.114820
