19
Iteration:  2948
 C        -0.019114         0.229119         0.109844
 C         1.404663        -0.049473         0.122256
 C         2.476367        -1.278742         0.301233
 C         3.243294        -0.057464        -0.068023
 C         4.655609         0.549783        -0.287377
 C         4.248854         2.005763         0.116758
 O         2.954482         2.085400         0.613276
 C         2.542613         0.762493         0.903372
 O         2.229069         0.220520        -1.175704
 H        -0.486572        -0.105655         1.103730
 H        -0.195686         1.287149         0.166173
 H        -0.556412        -0.195729        -0.745927
 H         2.731849        -1.654156         1.316340
 H         2.303905        -2.058165        -0.448655
 H         5.274794         0.153054         0.418950
 H         4.981559         0.298981        -1.243043
 H         4.946100         2.311759         0.900380
 H         4.398259         2.747471        -0.727256
 H         2.556723         0.431971         1.906883
