19
Iteration:   937charge 0 multiplicity 1
 C        -0.049979         0.071267         0.069438
 C         1.481375         0.051101         0.007969
 C         2.333773        -1.250897         0.216117
 C         3.268123        -0.129827         0.027458
 C         4.684343         0.448138        -0.216382
 C         4.210191         1.963402         0.037894
 O         2.978288         2.137588         0.668898
 C         2.542965         0.817316         0.991683
 O         2.308345         0.359892        -1.133163
 H        -0.399043        -0.284176         1.073173
 H        -0.526447         1.071469        -0.050810
 H        -0.572830        -0.578725        -0.636840
 H         2.239031        -1.586535         1.275708
 H         2.398214        -1.962706        -0.584833
 H         5.543372         0.023439         0.410109
 H         5.056706         0.237193        -1.219571
 H         4.913215         2.611603         0.518276
 H         4.134119         2.134949        -0.999298
 H         2.503029         0.785209         2.064764
