19
Iteration:  3947
 C        -0.056707         0.284702        -0.050767
 C         1.382469        -0.096504         0.070236
 C         2.406594        -1.332761         0.465347
 C         3.330345        -0.106560        -0.133243
 C         4.673302         0.625316        -0.259863
 C         4.192227         2.140279        -0.006511
 O         3.034296         2.018704         0.785051
 C         2.553194         0.750665         0.887880
 O         2.236823         0.144761        -1.146412
 H        -0.767501        -0.152325         0.706043
 H        -0.059415         1.407606        -0.034342
 H        -0.384048         0.002135        -1.113768
 H         2.475260        -1.708040         1.506863
 H         2.546273        -2.251604        -0.056369
 H         5.336414         0.297988         0.561868
 H         5.030685         0.518397        -1.207344
 H         4.866343         2.861939         0.655155
 H         3.875186         2.642143        -0.906388
 H         2.489765         0.624478         2.025194
