19
Iteration:  3922
 C         0.049071         0.139033        -0.037264
 C         1.439254         0.050347         0.096860
 C         2.387133        -1.308873         0.312103
 C         3.282476        -0.096992        -0.045431
 C         4.596262         0.510185        -0.202790
 C         4.223970         1.982482        -0.160709
 O         2.963091         2.165506         0.823510
 C         2.501428         0.822170         1.022428
 O         2.289835         0.222991        -1.128397
 H        -0.409614        -0.401418         0.715205
 H        -0.279322         1.190886         0.006917
 H        -0.200677        -0.303499        -0.998655
 H         2.466401        -1.916504         1.152270
 H         2.352978        -1.998347        -0.623166
 H         5.274960         0.330537         0.697138
 H         5.041224         0.212660        -1.216829
 H         4.906207         2.552324         0.383290
 H         3.873046         2.429144        -1.113908
 H         2.694314         0.562366         2.093827
