19
Iteration:  4202
 C        -0.105723         0.028900        -0.028188
 C         1.428543         0.044682         0.101039
 C         2.283046        -1.268847         0.304472
 C         3.259334        -0.106593        -0.068739
 C         4.599754         0.574866        -0.175599
 C         4.300059         2.093595        -0.107597
 O         3.087351         2.084931         0.702615
 C         2.594387         0.768948         1.022941
 O         2.253810         0.302399        -1.077290
 H        -0.562949        -0.012014         0.974838
 H        -0.471927         0.910974        -0.679293
 H        -0.264433        -0.943271        -0.580780
 H         2.414869        -1.613912         1.297629
 H         2.410176        -2.095147        -0.473527
 H         5.280806         0.332151         0.655750
 H         5.205718         0.317219        -1.116510
 H         5.114529         2.621061         0.380209
 H         3.997656         2.341474        -1.090541
 H         2.626749         0.374873         2.083787
