19
Iteration:  4868charge 0 multiplicity 1
 C         0.000667         0.075263        -0.130333
 C         1.502925        -0.017073         0.180523
 C         2.405286        -1.293145         0.483941
 C         3.225267        -0.095988        -0.019588
 C         4.612201         0.505610        -0.356391
 C         4.330078         1.991932        -0.020619
 O         2.917147         2.132024         0.628249
 C         2.510402         0.839895         0.961076
 O         2.224124         0.309177        -1.025916
 H        -0.779069        -0.253466         0.655399
 H        -0.185959         1.154774        -0.377639
 H        -0.082317        -0.478566        -1.179267
 H         2.428683        -1.482129         1.578083
 H         2.362430        -2.277893        -0.090371
 H         5.242766         0.051377         0.364775
 H         5.028561         0.473719        -1.349309
 H         5.107790         2.527612         0.544706
 H         4.438912         2.478563        -1.015533
 H         2.652263         0.722130         2.086536
