19
Iteration:  2454
 C        -0.035113         0.146506         0.127998
 C         1.472676        -0.005976         0.200205
 C         2.392075        -1.311685         0.338794
 C         3.278256        -0.030343        -0.179685
 C         4.626794         0.511242        -0.292694
 C         4.307201         1.987208         0.124474
 O         2.919913         2.089490         0.598754
 C         2.577906         0.782053         0.949259
 O         2.193032         0.269654        -1.194558
 H        -0.601574         0.294227         1.019622
 H        -0.239796         1.011172        -0.494659
 H        -0.411166        -0.780946        -0.420761
 H         2.749750        -1.668644         1.316836
 H         2.268604        -2.090463        -0.379815
 H         5.234529         0.114635         0.523372
 H         5.131630         0.740465        -1.246810
 H         5.103377         2.336508         0.901147
 H         4.308306         2.744125        -0.839572
 H         2.727189         0.653530         1.960469
