19
Iteration:  2206charge 0 multiplicity 1
 C        -0.094447         0.075176         0.112019
 C         1.447214        -0.032179         0.054428
 C         2.345534        -1.250138         0.433224
 C         3.321253        -0.059745        -0.064827
 C         4.659054         0.511019        -0.352601
 C         4.313841         2.064740         0.185496
 O         3.024718         2.175895         0.656938
 C         2.538995         0.796310         0.838614
 O         2.157447         0.215465        -1.201504
 H        -0.379760        -0.465064         1.004903
 H        -0.416709         1.107413         0.005569
 H        -0.597947        -0.595033        -0.645254
 H         2.642686        -1.690643         1.427695
 H         2.227343        -2.015129        -0.344443
 H         5.479973        -0.064293         0.094399
 H         5.033126         0.476769        -1.427989
 H         5.116712         2.412744         0.953794
 H         4.483180         2.756799        -0.697725
 H         2.636288         0.607709         1.894331
