19
Iteration:  2351
 C         0.001364         0.109852        -0.055936
 C         1.454169        -0.002871         0.124953
 C         2.330075        -1.325592         0.303777
 C         3.288562        -0.080004         0.013547
 C         4.614826         0.465038        -0.331760
 C         4.188238         2.061449        -0.183536
 O         3.105219         2.101539         0.825262
 C         2.590517         0.807299         1.028899
 O         2.202331         0.330094        -1.051384
 H        -0.444024        -0.504950         0.750542
 H        -0.521012         1.084932        -0.041994
 H        -0.195530        -0.314528        -0.979459
 H         2.236584        -1.735314         1.361098
 H         2.388231        -2.045148        -0.537063
 H         5.275560         0.316965         0.534643
 H         5.207482         0.057776        -1.126468
 H         4.667250         3.009844         0.100242
 H         3.754802         2.189880        -1.252833
 H         2.624255         0.666862         2.052990
