19
Iteration:  4556
 C        -0.083574        -0.059212        -0.104103
 C         1.430854        -0.017302         0.217816
 C         2.326243        -1.315901         0.376594
 C         3.305770         0.004551         0.059591
 C         4.637902         0.561154        -0.390360
 C         4.407803         1.973260         0.124793
 O         3.031974         2.224614         0.453741
 C         2.431145         0.880854         0.986023
 O         2.240738         0.286335        -0.974972
 H        -0.752962        -0.130511         0.825428
 H        -0.493694         0.666843        -0.844918
 H        -0.188060        -1.029767        -0.667460
 H         2.321623        -1.799586         1.353462
 H         2.180653        -2.188383        -0.330471
 H         5.596854         0.035414        -0.105836
 H         4.739782         0.638307        -1.457465
 H         5.088905         1.986721         0.919616
 H         4.742243         2.633330        -0.631805
 H         2.449562         0.747471         2.071695
