19
Iteration:  1865
 C        -0.038003         0.144866         0.051642
 C         1.441873        -0.040079         0.058374
 C         2.388428        -1.309867         0.269991
 C         3.270864        -0.096294        -0.010892
 C         4.633107         0.545835        -0.432326
 C         4.298810         2.042725         0.082567
 O         3.002789         2.092802         0.730548
 C         2.452006         0.820233         0.971895
 O         2.272344         0.270121        -1.074456
 H        -0.250720        -0.155390         1.099359
 H        -0.349366         1.198367        -0.110073
 H        -0.440822        -0.546863        -0.666255
 H         2.566040        -1.702373         1.257465
 H         2.429111        -2.083894        -0.430979
 H         5.409265         0.027334         0.123894
 H         4.625823         0.402258        -1.521991
 H         5.197688         2.512489         0.576749
 H         4.252306         2.748189        -0.694649
 H         2.315086         0.555905         2.009824
