19
Iteration:  4422
 C        -0.031083         0.074028        -0.191977
 C         1.472886         0.036031         0.186831
 C         2.270072        -1.318262         0.403780
 C         3.289865        -0.141404        -0.024204
 C         4.637318         0.533375        -0.231249
 C         4.077035         2.092359        -0.221140
 O         3.189388         2.123437         0.877712
 C         2.539144         0.824552         1.014126
 O         2.290030         0.225777        -1.107770
 H        -0.551217        -0.071810         0.762551
 H        -0.168839         1.054617        -0.679801
 H        -0.134415        -0.762840        -0.917291
 H         2.236020        -1.755216         1.445634
 H         2.124132        -2.095856        -0.320159
 H         5.420780         0.468707         0.584666
 H         5.117789         0.520597        -1.300622
 H         4.754000         2.886072         0.018867
 H         3.594651         2.373671        -1.176073
 H         2.404886         0.636026         2.074770
