19
Iteration:   612
 C        -0.100050         0.138931         0.011773
 C         1.390799         0.094841         0.046153
 C         2.503862        -1.408268         0.148479
 C         3.257754        -0.085567        -0.041428
 C         4.652262         0.442037        -0.116023
 C         4.280741         2.003602        -0.138657
 O         3.016383         2.081993         0.819614
 C         2.490185         0.763834         0.985440
 O         2.244303         0.448487        -1.085663
 H        -0.362763         0.076752         1.089776
 H        -0.482307         1.048541        -0.518871
 H        -0.504393        -0.778862        -0.414858
 H         2.591408        -2.095732         1.083251
 H         2.657796        -2.009266        -0.735408
 H         5.235075         0.110233         0.854567
 H         5.169453         0.121590        -0.981310
 H         4.926614         2.785062         0.199732
 H         3.856816         2.209036        -1.130146
 H         2.556792         0.711818         2.098879
