19
Iteration:   706
 C        -0.063993         0.256265        -0.091479
 C         1.471779        -0.036937         0.152386
 C         2.452037        -1.355099         0.306782
 C         3.237094        -0.176902        -0.068690
 C         4.557042         0.567439        -0.345949
 C         4.275688         2.039120         0.124081
 O         2.968319         2.164895         0.752583
 C         2.600249         0.780930         0.957928
 O         2.257568         0.183649        -1.114995
 H        -0.723851        -0.264990         0.596287
 H        -0.097290         1.348408         0.010454
 H        -0.564500         0.215180        -1.078053
 H         2.582215        -1.814314         1.249848
 H         2.314541        -2.043221        -0.522468
 H         5.305212         0.169056         0.308242
 H         5.026905         0.469993        -1.426122
 H         4.983859         2.265867         0.961905
 H         4.244213         2.788567        -0.712914
 H         2.478014         0.438246         2.027870
