19
Iteration:  1479charge 0 multiplicity 1
 C         0.026942         0.005382         0.072302
 C         1.483695        -0.059649         0.046734
 C         2.412227        -1.245185         0.287039
 C         3.235974        -0.061398         0.014611
 C         4.544088         0.432987        -0.275416
 C         4.225998         1.966160        -0.042886
 O         3.049788         2.169725         0.782913
 C         2.488610         0.833534         0.917247
 O         2.262381         0.405486        -1.133815
 H        -0.596559        -0.314240         0.891344
 H        -0.300314         1.026626         0.000936
 H        -0.437951        -0.474409        -0.814672
 H         2.310797        -1.817406         1.209732
 H         2.441570        -1.820522        -0.652932
 H         5.304511         0.164950         0.403793
 H         4.959481         0.204481        -1.208227
 H         5.012874         2.401425         0.542035
 H         4.325324         2.457519        -0.990841
 H         2.498898         0.565174         2.035015
