19
Iteration:  2477
 C        -0.017814         0.044636        -0.012389
 C         1.442212        -0.028356         0.167898
 C         2.415702        -1.298399         0.308129
 C         3.300698        -0.077292        -0.035466
 C         4.603187         0.499942        -0.345823
 C         4.359822         2.009881         0.102816
 O         2.964702         2.104421         0.574211
 C         2.584213         0.824387         0.917571
 O         2.115213         0.356721        -1.010877
 H        -0.427975         0.095417         0.984858
 H        -0.306486         1.017119        -0.458551
 H        -0.475532        -0.828500        -0.551634
 H         2.370403        -1.735200         1.309903
 H         2.287731        -1.932476        -0.498016
 H         5.245736         0.070909         0.438259
 H         4.991778         0.458487        -1.414419
 H         5.209964         2.310997         0.836665
 H         4.270883         2.791382        -0.784872
 H         2.815655         0.729140         1.925076
