19
Iteration:  2962charge 0 multiplicity 1
 C        -0.088773         0.165600         0.136953
 C         1.496269        -0.047809        -0.040621
 C         2.382968        -1.317433         0.339913
 C         3.267486        -0.126530        -0.123270
 C         4.545843         0.528030        -0.296202
 C         4.367091         2.069087         0.103838
 O         2.944884         2.136103         0.673270
 C         2.520978         0.819150         0.935692
 O         2.286789         0.241728        -1.134847
 H        -0.220877        -0.208833         1.132680
 H        -0.252232         1.258048         0.116476
 H        -0.844531        -0.402343        -0.540714
 H         2.377428        -1.690442         1.454455
 H         2.415404        -2.149628        -0.364686
 H         5.364008        -0.059539         0.307137
 H         5.004988         0.551989        -1.355979
 H         5.089631         2.354935         0.849599
 H         4.311240         2.650987        -0.807126
 H         2.665605         0.620675         1.944129
