19
Iteration:   131charge 0 multiplicity 1
 C        -0.061100         0.028885        -0.075449
 C         1.436588        -0.085968         0.020167
 C         2.357482        -1.234061         0.393305
 C         3.232430        -0.051340         0.016251
 C         4.557696         0.521625        -0.344152
 C         4.318870         1.986208        -0.130671
 O         3.130472         2.078023         0.911947
 C         2.473887         0.862957         1.047348
 O         2.298570         0.331427        -1.160969
 H        -0.699812        -0.464491         0.614134
 H        -0.232156         1.070250        -0.033161
 H        -0.352193        -0.198645        -1.075719
 H         2.320033        -1.501744         1.434541
 H         2.354746        -2.010341        -0.314646
 H         5.330511         0.144016         0.243921
 H         4.906485         0.511825        -1.377718
 H         5.098343         2.642751         0.264889
 H         3.712982         2.425881        -0.975191
 H         2.436169         0.540722         2.124143
