19
Iteration:  3207
 C        -0.087257        -0.030674         0.049682
 C         1.399254         0.008743         0.167555
 C         2.347733        -1.262682         0.314717
 C         3.235766        -0.035797        -0.159960
 C         4.670463         0.559724        -0.193020
 C         4.430905         2.013529        -0.009084
 O         3.026576         2.149301         0.679223
 C         2.543479         0.773976         0.884104
 O         2.187381         0.311241        -1.122558
 H        -0.743166        -0.170779         0.988954
 H        -0.438075         0.938177        -0.281608
 H        -0.274734        -0.769314        -0.710959
 H         2.472343        -1.585035         1.425473
 H         2.187447        -2.090103        -0.369765
 H         5.220374        -0.082019         0.609197
 H         5.267871         0.345627        -1.073056
 H         5.036423         2.531903         0.691116
 H         4.313017         2.629384        -0.867824
 H         2.572683         0.619080         2.062394
