19
Iteration:  2750charge 0 multiplicity 1
 C         0.034865         0.214620         0.081639
 C         1.465604        -0.075725         0.070820
 C         2.448327        -1.285993         0.335653
 C         3.273884        -0.190402        -0.174649
 C         4.600755         0.610965        -0.271439
 C         4.228885         2.092600         0.102772
 O         2.945615         2.147159         0.671455
 C         2.575727         0.782468         0.916904
 O         2.173273         0.169410        -1.166663
 H        -0.564403        -0.284089         0.894558
 H         0.004738         1.346779         0.126576
 H        -0.483787        -0.084382        -0.838786
 H         2.478687        -1.748485         1.406345
 H         2.163732        -2.284823        -0.230982
 H         4.968696         0.089418         0.605412
 H         5.442908         0.402922        -0.920500
 H         5.000350         2.297300         0.885054
 H         4.387141         2.893609        -0.763276
 H         2.680125         0.573666         2.041091
