19
Iteration:  1611charge 0 multiplicity 1
 C        -0.004262         0.168568         0.026561
 C         1.491790         0.022311         0.155174
 C         2.367086        -1.298590         0.285658
 C         3.288682        -0.105861        -0.056176
 C         4.651041         0.447629        -0.335273
 C         4.247204         2.046732        -0.023987
 O         2.909940         2.090166         0.754138
 C         2.593992         0.771754         1.014648
 O         2.227862         0.346730        -1.116365
 H        -0.455969        -0.461542         0.802119
 H        -0.427957         1.171055        -0.105235
 H        -0.139049        -0.522043        -0.849618
 H         2.357916        -1.826989         1.212431
 H         2.208196        -2.049693        -0.581762
 H         5.357328         0.222141         0.446015
 H         5.045089         0.310907        -1.303656
 H         5.053371         2.707317         0.348668
 H         4.069868         2.459945        -1.000964
 H         2.619951         0.424651         2.068196
