19
Iteration:  4831charge 0 multiplicity 1
 C         0.002071         0.175780         0.162667
 C         1.418376        -0.030841         0.085911
 C         2.337278        -1.289745         0.347772
 C         3.316308        -0.096445        -0.018867
 C         4.647999         0.580825        -0.141003
 C         4.324351         2.060745         0.035605
 O         2.906862         2.153409         0.582876
 C         2.490786         0.843245         0.837850
 O         2.342434         0.083459        -1.208770
 H        -0.491994        -0.158953         1.044169
 H        -0.253514         1.244797         0.016174
 H        -0.454742        -0.366909        -0.631683
 H         2.142204        -1.778388         1.323002
 H         2.240391        -1.933531        -0.480025
 H         5.392396         0.253478         0.633652
 H         5.098939         0.388840        -1.150635
 H         5.035237         2.558286         0.716072
 H         4.166353         2.505981        -1.045343
 H         2.215808         0.621056         1.896557
