19
Iteration:  3407charge 0 multiplicity 1
 C        -0.001011         0.248396        -0.002443
 C         1.494566        -0.030089         0.062729
 C         2.416063        -1.297654         0.362460
 C         3.366124        -0.084570         0.019610
 C         4.694587         0.432667        -0.268464
 C         4.264189         2.141980        -0.000799
 O         2.921549         2.181576         0.771953
 C         2.519261         0.766336         0.950157
 O         2.122626         0.104154        -1.209495
 H        -0.573333        -0.080902         0.812520
 H        -0.155230         1.363399        -0.106496
 H        -0.442957        -0.189497        -0.923284
 H         2.685516        -1.656482         1.355048
 H         2.265559        -2.118818        -0.429131
 H         5.304650         0.101950         0.562537
 H         5.205940         0.235350        -1.270325
 H         4.967040         2.686286         0.478409
 H         3.950413         2.535840        -0.982365
 H         2.558290         0.474332         2.059792
