19
Iteration:  1756
 C         0.028611         0.238020         0.050079
 C         1.494650        -0.045372         0.101617
 C         2.305485        -1.301346         0.325585
 C         3.308987        -0.096697        -0.083607
 C         4.673551         0.545943        -0.298313
 C         4.101137         2.099726        -0.086276
 O         2.959699         2.009730         0.801505
 C         2.620570         0.638704         0.983479
 O         2.313022         0.349682        -1.125558
 H        -0.688204         0.022942         0.921394
 H        -0.010191         1.339464        -0.277617
 H        -0.510943        -0.365315        -0.735459
 H         2.024899        -1.541757         1.470101
 H         2.220377        -2.156981        -0.338595
 H         5.467138         0.041878         0.370635
 H         4.906274         0.318347        -1.420685
 H         4.834552         2.941942         0.326725
 H         3.781620         2.537858        -1.053012
 H         2.743487         0.212307         2.049038
