19
Iteration:  4515charge 0 multiplicity 1
 C         0.005690         0.099329         0.127401
 C         1.460882         0.010113         0.052080
 C         2.409652        -1.167664         0.464979
 C         3.239500        -0.118872        -0.180296
 C         4.720883         0.534085        -0.185650
 C         4.331396         1.990797         0.115746
 O         2.892835         2.148224         0.591288
 C         2.447788         0.796442         0.788687
 O         2.263080         0.175191        -1.197897
 H        -0.253743        -0.357805         1.123398
 H        -0.517394         1.113892         0.070143
 H        -0.496481        -0.513954        -0.662253
 H         2.411771        -1.397760         1.509740
 H         2.264407        -2.127107        -0.154630
 H         5.287105         0.128719         0.600379
 H         5.104436         0.378036        -1.125603
 H         4.932148         2.450000         0.961339
 H         4.450682         2.758173        -0.690321
 H         2.453555         0.712343         1.896815
