19
Iteration:   791
 C        -0.043120         0.058879         0.044556
 C         1.438479         0.007339         0.013295
 C         2.313914        -1.328777         0.265030
 C         3.238537        -0.105569        -0.118511
 C         4.677297         0.494360        -0.121336
 C         4.337137         2.057407        -0.002687
 O         3.066902         2.165853         0.770745
 C         2.524461         0.717757         0.967747
 O         2.191620         0.393758        -1.223787
 H        -0.381137         0.127728         1.108655
 H        -0.501604         0.999681        -0.348693
 H        -0.383009        -0.950190        -0.365750
 H         2.398478        -1.500801         1.368271
 H         2.271396        -2.222255        -0.482836
 H         5.159271         0.124039         0.779529
 H         5.350646         0.104504        -1.058168
 H         5.025805         2.623481         0.601263
 H         4.182463         2.621689        -0.924447
 H         2.423620         0.361056         2.020493
