19
Iteration:  2220
 C        -0.091335         0.091037         0.188488
 C         1.435709         0.073541         0.106766
 C         2.363389        -1.237976         0.337399
 C         3.255493        -0.103964        -0.148239
 C         4.650421         0.568420        -0.355982
 C         4.334772         1.980443         0.115403
 O         2.926719         2.125086         0.666394
 C         2.539444         0.831697         0.871329
 O         2.351066         0.164992        -1.188566
 H        -0.482276        -0.203621         1.207957
 H        -0.541687         1.105592         0.013705
 H        -0.485347        -0.607387        -0.530942
 H         2.263988        -1.539723         1.351650
 H         2.247490        -2.066502        -0.276019
 H         5.380732         0.210235         0.375061
 H         4.921915         0.571763        -1.415022
 H         4.972081         2.211351         1.012479
 H         4.377824         2.838784        -0.729473
 H         2.571300         0.450547         1.987041
