19
Iteration:  2520charge 0 multiplicity 1
 C        -0.031905         0.008199         0.097126
 C         1.491013         0.060206        -0.015719
 C         2.274326        -1.241844         0.423494
 C         3.252354        -0.095246        -0.033523
 C         4.636106         0.546420        -0.365348
 C         4.243543         1.978394         0.025006
 O         3.041143         2.128034         0.742919
 C         2.558704         0.840575         0.932086
 O         2.272153         0.278051        -1.146447
 H        -0.372004        -0.488785         0.957625
 H        -0.540249         0.977594         0.086278
 H        -0.334531        -0.544000        -0.824649
 H         2.398187        -1.706703         1.429306
 H         2.302021        -1.892104        -0.392181
 H         5.386737         0.069657         0.289013
 H         4.955800         0.457703        -1.448999
 H         4.998454         2.451360         0.731070
 H         4.249573         2.564367        -1.038289
 H         2.378037         0.509498         1.944123
