19
Iteration:  3701
 C        -0.174850        -0.078917        -0.003963
 C         1.376483        -0.034833         0.063074
 C         2.357624        -1.202087         0.373697
 C         3.265181        -0.056932        -0.018331
 C         4.631539         0.505590        -0.291614
 C         4.366650         1.970061        -0.025704
 O         3.068035         2.137630         0.675462
 C         2.560285         0.854130         0.942339
 O         2.267180         0.396185        -1.085155
 H        -0.589808        -0.193856         1.051323
 H        -0.649153         0.796969        -0.367516
 H        -0.597670        -0.891701        -0.540851
 H         2.271517        -1.534782         1.383044
 H         2.444661        -1.929458        -0.324760
 H         5.389013         0.059802         0.403508
 H         5.125496         0.199830        -1.309571
 H         5.091733         2.328402         0.728666
 H         4.511908         2.663118        -0.937210
 H         2.567700         0.537355         2.026030
