19
Iteration:  3629
 C         0.022074         0.344240         0.064572
 C         1.462534        -0.056194        -0.056646
 C         2.308413        -1.321905         0.373423
 C         3.355195        -0.105414         0.037468
 C         4.694304         0.621098        -0.227443
 C         4.028506         2.003758        -0.139695
 O         3.037149         2.008397         0.783257
 C         2.518442         0.755982         0.865871
 O         2.368750         0.178904        -1.089482
 H        -0.341002        -0.005396         1.081254
 H        -0.216611         1.416613        -0.014260
 H        -0.735386        -0.206408        -0.539149
 H         2.226593        -1.599439         1.502694
 H         2.147083        -2.202063        -0.354989
 H         5.531634         0.457197         0.512150
 H         5.175398         0.585235        -1.171351
 H         4.720396         2.820044         0.041507
 H         3.565296         2.273017        -1.075078
 H         2.291842         0.606460         1.940641
