19
Iteration:   639charge 0 multiplicity 1
 C         0.002535         0.000179         0.010282
 C         1.441378         0.039787         0.125779
 C         2.261597        -1.262946         0.186686
 C         3.293039        -0.089316        -0.058589
 C         4.656134         0.486994        -0.119030
 C         4.339764         1.991341        -0.099817
 O         2.986441         2.078217         0.745376
 C         2.532605         0.742650         1.028087
 O         2.253705         0.466477        -1.124312
 H        -0.427222        -0.174981         0.998732
 H        -0.126923         0.989833        -0.416347
 H        -0.442869        -0.720919        -0.698830
 H         2.311842        -1.907885         1.014921
 H         2.090240        -1.963265        -0.676597
 H         5.216692         0.138132         0.721814
 H         5.126915         0.286985        -1.162430
 H         5.037535         2.686499         0.419770
 H         4.035705         2.309422        -1.095584
 H         2.534945         0.794982         2.115021
