19
Iteration:  1612charge 0 multiplicity 1
 C        -0.015864         0.166213         0.026825
 C         1.481058         0.020074         0.149124
 C         2.378312        -1.289595         0.277380
 C         3.287186        -0.097531        -0.053919
 C         4.643188         0.445614        -0.334426
 C         4.254564         2.036172        -0.018992
 O         2.916122         2.085709         0.748225
 C         2.593815         0.776902         1.012095
 O         2.223825         0.346331        -1.108946
 H        -0.465403        -0.481222         0.800819
 H        -0.427141         1.189641        -0.098342
 H        -0.119592        -0.523697        -0.832629
 H         2.369247        -1.826636         1.239243
 H         2.257601        -2.038110        -0.582447
 H         5.387920         0.252452         0.458258
 H         5.102931         0.320238        -1.319406
 H         5.033045         2.707403         0.333887
 H         4.058945         2.429443        -0.978739
 H         2.615331         0.420080         2.093152
