19
Iteration:  1382charge 0 multiplicity 1
 C        -0.015461         0.218210         0.089121
 C         1.473895        -0.025007         0.085089
 C         2.379743        -1.360423         0.235549
 C         3.316672        -0.191630        -0.117974
 C         4.626268         0.536982        -0.259933
 C         4.249174         2.053246         0.026433
 O         2.862618         2.116996         0.654222
 C         2.533969         0.782915         1.009038
 O         2.327984         0.305703        -1.071279
 H        -0.413970         0.243920         1.097732
 H        -0.188250         1.202859        -0.338311
 H        -0.703002        -0.453880        -0.435650
 H         2.509033        -1.944438         1.192259
 H         2.127999        -2.108045        -0.587633
 H         5.492020         0.131039         0.371251
 H         5.063984         0.505646        -1.262983
 H         5.038530         2.382613         0.673330
 H         4.199797         2.593440        -0.908782
 H         2.573771         0.563746         2.096772
