19
Iteration:  1383
 C        -0.031149         0.220704         0.093198
 C         1.468895        -0.031194         0.075562
 C         2.389546        -1.363961         0.235957
 C         3.325358        -0.200405        -0.112692
 C         4.626433         0.536730        -0.262969
 C         4.238203         2.044478         0.024596
 O         2.868014         2.119740         0.651551
 C         2.533633         0.790957         1.021360
 O         2.332398         0.309236        -1.074948
 H        -0.402037         0.251661         1.104956
 H        -0.181238         1.203056        -0.312594
 H        -0.693345        -0.456794        -0.453324
 H         2.513778        -1.912265         1.178940
 H         2.111241        -2.093947        -0.594924
 H         5.506001         0.116261         0.357457
 H         5.037674         0.504235        -1.255565
 H         5.040095         2.404667         0.684525
 H         4.218639         2.619708        -0.871480
 H         2.552365         0.583057         2.069009
