19
Iteration:  2816charge 0 multiplicity 1
 C        -0.000519         0.097413        -0.034063
 C         1.497733        -0.007681         0.130724
 C         2.396296        -1.274583         0.213365
 C         3.239319        -0.118396         0.003710
 C         4.610800         0.480811        -0.226084
 C         4.186794         2.008259        -0.159626
 O         3.005263         2.075915         0.757034
 C         2.521979         0.754574         1.075437
 O         2.280094         0.408779        -1.045698
 H        -0.512278         0.038658         0.981946
 H        -0.140627         1.026731        -0.618432
 H        -0.365305        -0.723329        -0.618380
 H         2.539441        -1.678473         1.257560
 H         2.098435        -1.965412        -0.659129
 H         5.392527         0.368114         0.467541
 H         4.895639         0.331671        -1.241245
 H         5.021675         2.670424         0.187260
 H         3.938422         2.477156        -1.210189
 H         2.660836         0.467823         2.074005
