19
Iteration:  4585charge 0 multiplicity 1
 C         0.024440        -0.014733        -0.151047
 C         1.507119         0.010712         0.154555
 C         2.391143        -1.185579         0.506685
 C         3.243322        -0.031676        -0.083035
 C         4.552586         0.440133        -0.354668
 C         4.314848         2.020679         0.177465
 O         2.941862         2.183756         0.571474
 C         2.603514         0.826583         0.906153
 O         2.158929         0.261354        -1.065026
 H        -0.527521         0.105539         0.740133
 H        -0.357197         0.658210        -0.858890
 H        -0.286227        -0.947759        -0.583853
 H         2.449999        -1.373067         1.639626
 H         2.276096        -2.119520         0.058867
 H         5.380464        -0.178382         0.139593
 H         4.603159         0.689455        -1.487715
 H         5.122736         2.044013         1.029999
 H         4.712351         2.736085        -0.578094
 H         2.885230         0.529010         1.954577
