19
Iteration:  4115charge 0 multiplicity 1
 C         0.079906         0.219499        -0.101143
 C         1.536170        -0.005933         0.290283
 C         2.358873        -1.369372         0.293602
 C         3.280784        -0.115462        -0.035119
 C         4.634122         0.531427        -0.258772
 C         4.182207         2.035351        -0.092805
 O         2.849446         2.057198         0.622902
 C         2.624791         0.736020         1.107594
 O         2.238876         0.322649        -1.053801
 H        -0.783158        -0.124875         0.537562
 H        -0.055043         1.357067        -0.275495
 H        -0.033756        -0.248290        -1.121092
 H         2.417148        -2.038247         1.116860
 H         2.174268        -2.080204        -0.591984
 H         5.274483         0.289047         0.465118
 H         4.919063         0.436091        -1.326434
 H         4.977871         2.717597         0.473611
 H         3.930106         2.608652        -0.998787
 H         2.922467         0.674860         2.213974
