19
Iteration:  4932charge 0 multiplicity 1
 C         0.013585         0.065094         0.010619
 C         1.454035         0.031294         0.008983
 C         2.419016        -1.169764         0.401605
 C         3.302715        -0.086605        -0.029859
 C         4.594310         0.496396        -0.139130
 C         4.176479         1.970563        -0.127087
 O         3.047271         2.048663         0.744370
 C         2.480984         0.870551         0.934384
 O         2.286594         0.284851        -1.168993
 H        -0.383520        -0.028602         1.047608
 H        -0.277698         1.039215        -0.397274
 H        -0.602101        -0.693100        -0.553095
 H         2.401171        -1.511682         1.446302
 H         2.433962        -2.062082        -0.296153
 H         5.062370         0.112204         0.764004
 H         5.276106         0.231934        -0.946235
 H         4.839392         2.759759         0.242875
 H         3.748292         2.299774        -1.179826
 H         2.395168         0.439990         1.982892
