19
Iteration:   367
 C        -0.006562         0.330864         0.007939
 C         1.435941        -0.012237         0.071767
 C         2.426281        -1.341139         0.297180
 C         3.336319        -0.098207        -0.022368
 C         4.665783         0.533307        -0.324013
 C         4.196688         2.047534         0.009885
 O         2.874645         2.047511         0.844227
 C         2.529926         0.725112         0.994307
 O         2.329965         0.238248        -1.203993
 H        -0.411222        -0.126383         0.905728
 H        -0.218638         1.405211         0.118991
 H        -0.533613         0.079222        -0.904162
 H         2.502518        -1.823517         1.289486
 H         2.384118        -2.015884        -0.512051
 H         5.347353         0.087495         0.337693
 H         5.079876         0.327990        -1.340605
 H         4.935908         2.655438         0.484883
 H         3.873752         2.352040        -0.961905
 H         2.277786         0.312042         1.959309
