19
Iteration:  2810
 C         0.054673         0.135969        -0.036951
 C         1.460941        -0.016875         0.122791
 C         2.403434        -1.307753         0.232544
 C         3.213844        -0.079284         0.021376
 C         4.589684         0.523130        -0.252661
 C         4.178355         1.995189        -0.191118
 O         2.991204         2.048766         0.749837
 C         2.511152         0.751108         1.040780
 O         2.322190         0.393799        -1.024116
 H        -0.282146         0.071209         0.981234
 H        -0.260068         1.066445        -0.495821
 H        -0.346906        -0.758689        -0.592968
 H         2.462712        -1.752376         1.201818
 H         2.176207        -1.850299        -0.642465
 H         5.447188         0.211137         0.466535
 H         4.829652         0.181769        -1.313062
 H         4.924281         2.599089         0.366498
 H         3.989450         2.640470        -0.992823
 H         2.623775         0.545433         2.208462
