19
Iteration:  3025charge 0 multiplicity 1
 C        -0.019061         0.026971        -0.036100
 C         1.437987        -0.119978         0.178328
 C         2.439533        -1.227151         0.307569
 C         3.266908        -0.068526        -0.077693
 C         4.619133         0.474883        -0.238580
 C         4.320293         1.973732        -0.082343
 O         3.057358         2.108242         0.708239
 C         2.495753         0.822642         0.927606
 O         2.137203         0.441388        -1.021027
 H        -0.633043         0.099571         0.870387
 H        -0.016975         0.979971        -0.539059
 H        -0.572381        -0.674189        -0.689357
 H         2.643856        -1.689742         1.276382
 H         2.302134        -1.946613        -0.451438
 H         5.157381         0.075282         0.502805
 H         4.966954         0.251026        -1.196064
 H         5.131868         2.461331         0.481925
 H         4.147715         2.578505        -1.040023
 H         2.553823         0.536516         2.082327
