19
Iteration:     9
 C         0.031203         0.195115         0.062005
 C         1.457218        -0.032423         0.069228
 C         2.259397        -1.353823         0.285179
 C         3.275599        -0.150195        -0.079907
 C         4.619818         0.570699        -0.194269
 C         4.214893         2.030263        -0.095250
 O         3.031515         2.080358         0.713363
 C         2.489324         0.772312         1.039915
 O         2.335009         0.337393        -1.152265
 H        -0.338372        -0.121043         1.020351
 H        -0.353493         1.165765        -0.238044
 H        -0.374136        -0.524387        -0.602817
 H         2.464161        -1.728208         1.271298
 H         2.169503        -2.213283        -0.426221
 H         5.113683         0.243753         0.630443
 H         5.189629         0.411378        -1.193181
 H         4.831982         2.711986         0.545236
 H         3.991419         2.651667        -1.065303
 H         2.796578         0.387422         2.069676
