19
Iteration:  4477
 C         0.037069         0.238535         0.088355
 C         1.448287        -0.052199         0.142080
 C         2.394979        -1.344668         0.241939
 C         3.283269        -0.075481        -0.002584
 C         4.618970         0.583377        -0.119771
 C         4.297386         2.051883        -0.061118
 O         2.865833         2.067534         0.528454
 C         2.484777         0.823844         0.909204
 O         2.281284         0.175064        -1.066124
 H        -0.405189        -0.222041         0.994461
 H        -0.009012         1.308903         0.176346
 H        -0.440102        -0.244594        -0.789635
 H         2.550074        -1.912019         1.227098
 H         2.389379        -1.892630        -0.652493
 H         5.268712         0.359388         0.801009
 H         5.290508         0.384740        -1.074601
 H         4.927724         2.555620         0.652686
 H         4.303686         2.572777        -1.038722
 H         2.508722         0.551293         1.957950
