19
Iteration:   793charge 0 multiplicity 1
 C        -0.039417         0.064328         0.034325
 C         1.436460         0.025579         0.006731
 C         2.296977        -1.349256         0.278715
 C         3.248700        -0.091022        -0.140274
 C         4.657918         0.513460        -0.121086
 C         4.339600         2.060576        -0.005065
 O         3.065173         2.162068         0.779377
 C         2.537663         0.705381         0.964877
 O         2.192502         0.391006        -1.211984
 H        -0.372550         0.083369         1.103954
 H        -0.520222         0.980884        -0.396294
 H        -0.312875        -0.952908        -0.373174
 H         2.362171        -1.518387         1.354293
 H         2.340145        -2.187355        -0.406326
 H         5.131015         0.100038         0.779219
 H         5.302480         0.013656        -1.032272
 H         5.054978         2.628955         0.585055
 H         4.154810         2.571266        -0.968947
 H         2.524344         0.343697         2.084377
