19
Iteration:  4915
 C        -0.044273         0.011299        -0.056240
 C         1.436165        -0.050572         0.072050
 C         2.306881        -1.288688         0.412310
 C         3.248996        -0.069360         0.040228
 C         4.671748         0.480088        -0.251627
 C         4.221028         2.017525        -0.141626
 O         3.051444         2.165116         0.731183
 C         2.464144         0.828656         0.962067
 O         2.368030         0.376713        -1.086733
 H        -0.514593        -0.119306         0.942841
 H        -0.424161         0.935956        -0.532766
 H        -0.357242        -0.824665        -0.723048
 H         2.375179        -1.587495         1.467883
 H         2.157852        -2.183146        -0.193047
 H         5.542734         0.276619         0.422255
 H         4.832452         0.156014        -1.286176
 H         5.135843         2.533226         0.224148
 H         4.088359         2.414419        -1.080548
 H         2.323603         0.641253         2.039513
