19
Iteration:  3163
 C        -0.027479         0.036385         0.060752
 C         1.481651         0.031492         0.091061
 C         2.318208        -1.255509         0.289542
 C         3.241582        -0.087719        -0.083821
 C         4.597168         0.510969        -0.292680
 C         4.338903         1.958971        -0.090203
 O         2.968385         2.121944         0.782362
 C         2.428947         0.876170         0.986026
 O         2.382526         0.305699        -1.127880
 H        -0.383637        -0.193070         1.177129
 H        -0.439423         1.038124        -0.150116
 H        -0.375046        -0.775603        -0.553610
 H         2.454864        -1.707213         1.363437
 H         2.160098        -2.056933        -0.453221
 H         5.323465         0.050766         0.539157
 H         4.900486         0.387198        -1.328029
 H         5.150170         2.531352         0.331647
 H         4.059689         2.498172        -0.995859
 H         2.512438         0.592767         2.102681
