19
Iteration:  3474charge 0 multiplicity 1
 C         0.020490         0.162386         0.024171
 C         1.491502         0.065765         0.144959
 C         2.434478        -1.260498         0.292022
 C         3.298768        -0.072757        -0.018848
 C         4.535892         0.552485        -0.233246
 C         4.310610         1.967984         0.086840
 O         2.929445         2.089338         0.531688
 C         2.545075         0.810477         0.957543
 O         2.216474         0.222012        -1.100220
 H        -0.335356        -0.004930         1.087254
 H        -0.412432         1.094173        -0.347265
 H        -0.394264        -0.686684        -0.513464
 H         2.526164        -1.899909         1.230547
 H         2.216849        -1.884125        -0.568739
 H         5.184328        -0.018942         0.511522
 H         4.820399         0.341047        -1.290541
 H         4.985365         2.338294         0.789090
 H         4.456924         2.503249        -0.884354
 H         2.496633         0.581367         2.070537
