19
Iteration:  2469
 C         0.005713         0.081402         0.019194
 C         1.453760        -0.007277         0.178556
 C         2.461607        -1.250445         0.296360
 C         3.218440        -0.110443        -0.089655
 C         4.662334         0.530620        -0.312022
 C         4.355403         2.065330         0.079131
 O         2.943298         2.100462         0.573230
 C         2.568542         0.771776         0.934502
 O         2.099752         0.321769        -1.039039
 H        -0.454718         0.186694         1.059421
 H        -0.289412         1.023079        -0.587537
 H        -0.370469        -0.775718        -0.518775
 H         2.558356        -1.621697         1.327717
 H         2.143885        -1.987096        -0.440990
 H         5.360854        -0.044344         0.316988
 H         4.986222         0.041387        -1.244430
 H         4.943750         2.359722         0.955646
 H         4.496773         2.747310        -0.670466
 H         2.741923         0.400548         2.012585
