19
Iteration:  3260charge 0 multiplicity 1
 C        -0.052654         0.248687         0.059609
 C         1.434621        -0.109211         0.085374
 C         2.354746        -1.305759         0.340841
 C         3.300391        -0.145955         0.074454
 C         4.663892         0.564631        -0.356096
 C         4.218454         2.063548         0.005606
 O         2.932314         2.042641         0.623102
 C         2.546388         0.757943         0.937189
 O         2.384042         0.274058        -1.119624
 H        -0.487320        -0.097654         1.072716
 H        -0.084980         1.317547        -0.082611
 H        -0.667562        -0.229040        -0.697898
 H         2.216338        -1.862889         1.386567
 H         2.187563        -2.068989        -0.409945
 H         5.533253         0.244726         0.223250
 H         4.635055         0.491854        -1.395720
 H         4.860505         2.660263         0.762062
 H         4.146267         2.842571        -0.708191
 H         2.537470         0.790985         2.059955
