19
Iteration:  3283charge 0 multiplicity 1
 C         0.081141         0.302421         0.034495
 C         1.515577         0.001942         0.104734
 C         2.361144        -1.321592         0.390467
 C         3.258417        -0.112121        -0.084045
 C         4.607430         0.556141        -0.309953
 C         4.232464         2.039023        -0.010101
 O         2.886729         2.147481         0.738991
 C         2.532302         0.703509         0.938030
 O         2.287390         0.139348        -1.165394
 H        -0.370247        -0.174194         0.972188
 H        -0.239518         1.304118        -0.103554
 H        -0.314639        -0.330509        -0.752154
 H         2.460970        -1.853296         1.415650
 H         2.137282        -2.057535        -0.370300
 H         5.266387         0.388174         0.520817
 H         5.000675         0.455137        -1.266496
 H         4.942247         2.669873         0.547771
 H         4.071795         2.612067        -0.869717
 H         2.718065         0.412415         1.996179
