19
Iteration:  2498
 C        -0.076592        -0.008607         0.055612
 C         1.391044        -0.006548         0.163742
 C         2.346343        -1.273995         0.282750
 C         3.198725        -0.088793        -0.020833
 C         4.651222         0.533602        -0.373557
 C         4.361063         2.015836         0.019952
 O         2.997362         2.164528         0.645967
 C         2.541643         0.829505         1.028176
 O         2.337805         0.314175        -1.109299
 H        -0.538646        -0.203043         0.988895
 H        -0.496969         0.957994        -0.224491
 H        -0.332430        -0.794258        -0.719725
 H         2.396648        -1.614020         1.343447
 H         2.071985        -1.950555        -0.468380
 H         5.483194         0.013663         0.123201
 H         4.571658         0.220564        -1.443545
 H         5.114236         2.341926         0.835314
 H         4.380760         2.828350        -0.936573
 H         2.551838         0.585702         2.079576
