19
Iteration:  3171charge 0 multiplicity 1
 C        -0.032062         0.013787         0.137518
 C         1.467331         0.000614         0.057220
 C         2.368537        -1.208815         0.285811
 C         3.222781        -0.055420        -0.000079
 C         4.544368         0.467121        -0.257770
 C         4.351286         1.993587        -0.078292
 O         2.994997         2.151037         0.820869
 C         2.511090         0.865747         0.901558
 O         2.328856         0.298679        -1.196484
 H        -0.449428        -0.324890         1.083246
 H        -0.470896         0.903406        -0.388104
 H        -0.324256        -0.784967        -0.602243
 H         2.126273        -1.548444         1.339739
 H         2.258721        -2.025184        -0.517980
 H         5.321437         0.164241         0.450027
 H         4.793628         0.271031        -1.325310
 H         5.186000         2.507271         0.519123
 H         4.322458         2.345949        -1.091842
 H         2.381009         0.436914         2.027995
