19
Iteration:  1962
 C        -0.000150         0.014936         0.174743
 C         1.457865        -0.115553         0.078715
 C         2.284709        -1.283395         0.266783
 C         3.236133        -0.024717        -0.067211
 C         4.662712         0.475498        -0.310262
 C         4.313977         1.936716         0.060421
 O         2.928043         2.182518         0.682355
 C         2.567625         0.857064         0.947399
 O         2.277931         0.401398        -1.213103
 H        -0.367397        -0.304854         1.171345
 H        -0.211920         1.085113         0.040341
 H        -0.444054        -0.587266        -0.546377
 H         2.442425        -1.592664         1.282476
 H         2.331127        -2.092213        -0.350988
 H         5.392334         0.103937         0.376470
 H         4.855053         0.456144        -1.364247
 H         5.072279         2.301882         0.878288
 H         4.405624         2.557114        -0.810985
 H         2.473645         0.462650         2.034137
