19
Iteration:   716charge 0 multiplicity 1
 C        -0.071757         0.278390        -0.051358
 C         1.494899         0.007865         0.166039
 C         2.393690        -1.322183         0.308848
 C         3.281266        -0.109280        -0.103633
 C         4.626117         0.564005        -0.304375
 C         4.346810         2.068690         0.134502
 O         2.872404         2.012369         0.687030
 C         2.569120         0.768119         1.030078
 O         2.261293         0.206689        -1.164373
 H        -0.780233        -0.208534         0.637036
 H        -0.278918         1.362492         0.029301
 H        -0.202309        -0.110446        -1.102062
 H         2.648765        -1.735700         1.255491
 H         2.122863        -2.090091        -0.435844
 H         5.354901         0.026681         0.272153
 H         4.776177         0.385676        -1.457924
 H         5.008660         2.553135         0.865453
 H         4.225957         2.802458        -0.679887
 H         2.823073         0.488199         2.127333
