19
Iteration:    21charge 0 multiplicity 1
 C         0.017817         0.170817         0.183925
 C         1.511636        -0.038693         0.034016
 C         2.167218        -1.423153         0.261234
 C         3.241553        -0.152137        -0.146851
 C         4.633768         0.623089        -0.099598
 C         4.234865         2.122265        -0.083282
 O         2.976630         2.084355         0.716978
 C         2.553163         0.717543         0.948776
 O         2.387240         0.324026        -1.226548
 H        -0.110587         0.165722         1.244251
 H        -0.232036         1.180971        -0.114762
 H        -0.600001        -0.547075        -0.283066
 H         2.127141        -1.654623         1.304557
 H         1.938641        -2.258935        -0.419168
 H         5.048220         0.461482         0.810036
 H         5.447379         0.334237        -0.822812
 H         5.102445         2.617720         0.379411
 H         4.076222         2.495422        -1.149569
 H         2.585896         0.484457         2.049434
