19
Iteration:   753charge 0 multiplicity 1
 C        -0.028610         0.158758         0.105100
 C         1.452919         0.023042         0.059386
 C         2.363392        -1.364099         0.177902
 C         3.268999        -0.127115        -0.025868
 C         4.591408         0.428166        -0.236679
 C         4.328952         2.084374         0.087356
 O         2.890135         2.130814         0.627876
 C         2.497185         0.765827         1.029472
 O         2.351049         0.358094        -1.174211
 H        -0.280536        -0.153994         1.110340
 H        -0.383886         1.113248        -0.251752
 H        -0.511060        -0.524145        -0.549991
 H         2.464907        -1.801529         1.195704
 H         2.133623        -2.112383        -0.548788
 H         5.379722         0.092130         0.469431
 H         5.038504         0.396581        -1.142943
 H         5.085240         2.304719         0.883778
 H         4.457088         2.663482        -0.844838
 H         2.586031         0.628082         2.087815
