19
Iteration:  4171
 C         0.062455         0.158406         0.155535
 C         1.475099         0.014400        -0.060434
 C         2.340788        -1.198383         0.302673
 C         3.297117        -0.056375        -0.062991
 C         4.624438         0.504476        -0.118061
 C         4.133824         1.978807        -0.097757
 O         3.016593         2.090922         0.842779
 C         2.427698         0.806510         0.880359
 O         2.373838         0.166927        -1.228526
 H        -0.087711        -0.079183         1.212198
 H        -0.213363         1.265994         0.022318
 H        -0.638593        -0.468139        -0.477743
 H         2.311905        -1.511832         1.322054
 H         2.444046        -1.962584        -0.497415
 H         5.265677         0.229566         0.576817
 H         5.148125         0.420456        -1.090353
 H         4.810971         2.839175         0.173983
 H         3.575492         2.187842        -1.020466
 H         2.328479         0.505975         1.989851
