19
Iteration:   496charge 0 multiplicity 1
 C        -0.104856         0.045713         0.069751
 C         1.431774        -0.013699         0.125874
 C         2.312029        -1.214754         0.181749
 C         3.263848        -0.043043        -0.113415
 C         4.639505         0.490127        -0.157634
 C         4.305033         2.066106         0.025217
 O         3.003698         2.063902         0.691517
 C         2.564491         0.767699         0.917420
 O         2.328185         0.369589        -1.104344
 H        -0.502149        -0.637061         0.846792
 H        -0.558202         1.047305         0.220927
 H        -0.460216        -0.410289        -0.866383
 H         2.531274        -1.842628         1.086910
 H         1.927802        -1.862774        -0.614462
 H         5.092821         0.033291         0.762729
 H         5.204658         0.022596        -1.016694
 H         5.121393         2.651654         0.632662
 H         4.184235         2.571145        -0.945827
 H         2.732137         0.373102         1.942979
