19
Iteration:  4887
 C         0.006973         0.008786        -0.196919
 C         1.413569         0.008597         0.245429
 C         2.297573        -1.208670         0.408078
 C         3.252456        -0.072146         0.067648
 C         4.609702         0.491942        -0.303028
 C         4.221385         2.066525        -0.051231
 O         3.017249         2.118089         0.611060
 C         2.649935         0.864585         1.035814
 O         2.265115         0.242934        -1.028209
 H        -0.607231        -0.315168         0.655195
 H        -0.377266         0.964683        -0.580286
 H        -0.142381        -0.730808        -0.997571
 H         2.406770        -1.919440         1.254971
 H         2.025497        -1.809023        -0.452051
 H         5.572470         0.286600         0.165779
 H         4.673573         0.136939        -1.366526
 H         5.125180         2.351885         0.484469
 H         4.334519         2.738488        -1.045756
 H         2.574796         0.660024         2.131228
