19
Iteration:  1200charge 0 multiplicity 1
 C         0.067964         0.171095         0.095754
 C         1.531468         0.084508         0.099560
 C         2.251632        -1.312096         0.320968
 C         3.331804        -0.192907        -0.156272
 C         4.717989         0.499889        -0.212214
 C         4.211715         2.068847         0.030172
 O         2.907986         2.062669         0.611319
 C         2.511196         0.710806         0.937054
 O         2.260707         0.347153        -1.107678
 H        -0.402492         0.221135         1.094141
 H        -0.396280         1.053491        -0.441360
 H        -0.322517        -0.734432        -0.462797
 H         2.355771        -1.576755         1.414160
 H         1.838647        -2.169475        -0.348273
 H         5.402336         0.095416         0.531941
 H         5.186988         0.434923        -1.123460
 H         5.007498         2.596792         0.687680
 H         4.200025         2.651422        -0.861707
 H         2.468626         0.559912         2.098065
