19
Iteration:  3517
 C        -0.133585        -0.068479         0.017095
 C         1.422544         0.096172        -0.006319
 C         2.321955        -1.175027         0.428808
 C         3.208213        -0.075215        -0.108964
 C         4.627124         0.520462        -0.236881
 C         4.395018         2.051107         0.061436
 O         3.123747         2.088312         0.696154
 C         2.564925         0.855080         0.939315
 O         2.187211         0.242250        -1.177031
 H        -0.333724        -0.275234         1.099346
 H        -0.694603         0.795771        -0.331824
 H        -0.368991        -0.987852        -0.510219
 H         2.402834        -1.375090         1.566368
 H         2.193596        -2.077674        -0.167277
 H         5.285140         0.073176         0.451209
 H         5.053000         0.505723        -1.248651
 H         5.184114         2.496814         0.644220
 H         4.347690         2.664328        -0.885825
 H         2.603940         0.497688         1.969938
