19
Iteration:   715charge 0 multiplicity 1
 C        -0.075163         0.276337        -0.053215
 C         1.499813         0.004977         0.168037
 C         2.400727        -1.321047         0.306718
 C         3.274201        -0.122375        -0.101135
 C         4.621622         0.568067        -0.308520
 C         4.347748         2.069329         0.133429
 O         2.876713         2.020940         0.692762
 C         2.574021         0.776794         1.028019
 O         2.261561         0.202813        -1.164446
 H        -0.796780        -0.215075         0.632804
 H        -0.273180         1.377224         0.014675
 H        -0.244513        -0.075860        -1.125722
 H         2.659756        -1.751988         1.256453
 H         2.123530        -2.107240        -0.450734
 H         5.343727         0.018348         0.284631
 H         4.773456         0.367135        -1.458011
 H         4.992534         2.544115         0.868130
 H         4.210077         2.801569        -0.655802
 H         2.804023         0.483085         2.135437
