19
Iteration:  2047
 C        -0.023877         0.183316         0.008411
 C         1.482355         0.064292         0.150128
 C         2.333342        -1.218592         0.176095
 C         3.387221        -0.130810         0.078500
 C         4.660719         0.532090        -0.325181
 C         4.069101         1.994501        -0.158333
 O         2.957830         2.032659         0.771418
 C         2.572345         0.678834         1.063998
 O         2.377860         0.318405        -1.033747
 H        -0.506311        -0.067662         1.017510
 H        -0.481570         1.188637        -0.287398
 H        -0.365003        -0.403969        -0.807818
 H         2.396948        -1.849322         1.219611
 H         2.194303        -1.866396        -0.654441
 H         5.575368         0.359077         0.289346
 H         4.948597         0.256600        -1.358544
 H         4.688949         2.812596        -0.038853
 H         3.526536         2.172218        -1.132299
 H         2.408742         0.587616         2.073099
