19
Iteration:   834
 C        -0.033503         0.178193        -0.096809
 C         1.485220         0.006844         0.084620
 C         2.369500        -1.371141         0.236251
 C         3.302892        -0.078428         0.070121
 C         4.672845         0.449075        -0.329732
 C         4.216842         2.014495        -0.117084
 O         3.024291         2.098290         0.876086
 C         2.441842         0.798642         1.061203
 O         2.306066         0.353732        -1.058725
 H        -0.712927        -0.034687         0.742125
 H        -0.423482         1.177746        -0.384571
 H        -0.279228        -0.552287        -0.918440
 H         2.350098        -1.814800         1.291482
 H         2.338407        -2.127220        -0.655160
 H         5.473438         0.168812         0.321545
 H         4.822422         0.365047        -1.433883
 H         4.994682         2.747602         0.088555
 H         3.847655         2.318146        -1.105055
 H         2.364825         0.601046         2.122070
