19
Iteration:  2570
 C        -0.013998         0.242539         0.025265
 C         1.534412        -0.009234         0.172346
 C         2.429904        -1.364413         0.206951
 C         3.322646        -0.150464        -0.005957
 C         4.643755         0.518232        -0.149279
 C         4.168673         2.031222        -0.188240
 O         2.943752         2.079613         0.690454
 C         2.534508         0.778567         1.025100
 O         2.220367         0.311053        -1.088664
 H        -0.601507        -0.176993         0.933414
 H        -0.301861         1.298857         0.064988
 H        -0.435768        -0.216216        -0.916933
 H         2.694154        -1.766714         1.205081
 H         2.291467        -2.106002        -0.692861
 H         5.278410         0.356096         0.755105
 H         5.091028         0.452922        -1.140394
 H         4.912294         2.749424         0.220837
 H         3.920542         2.217769        -1.163646
 H         2.608516         0.433035         2.108463
