19
Iteration:  1460
 C        -0.113805         0.050760        -0.034796
 C         1.405289         0.017043         0.120111
 C         2.413569        -1.315673         0.276331
 C         3.276019        -0.048067        -0.089279
 C         4.663901         0.553563        -0.263098
 C         4.402751         2.047917         0.018440
 O         3.025976         2.092329         0.722699
 C         2.559810         0.822348         0.987538
 O         2.136300         0.304023        -1.099427
 H        -0.404688        -0.492368         0.865725
 H        -0.541266         1.036359         0.048311
 H        -0.468837        -0.417642        -0.961734
 H         2.696317        -1.553576         1.299176
 H         2.153964        -2.253232        -0.398241
 H         5.308999         0.021737         0.580805
 H         5.034769         0.379061        -1.264651
 H         5.097017         2.583342         0.617137
 H         4.228744         2.413790        -0.949609
 H         2.528872         0.464013         2.041440
