19
Iteration:   857
 C         0.039340         0.236480        -0.131132
 C         1.503274        -0.034880         0.064286
 C         2.332939        -1.284967         0.293890
 C         3.303335        -0.121009         0.042128
 C         4.519956         0.508946        -0.274614
 C         4.042342         2.021966        -0.127018
 O         3.017896         2.020761         0.775844
 C         2.571766         0.711708         1.102801
 O         2.395927         0.350896        -1.049783
 H        -0.608588        -0.034759         0.751547
 H        -0.121593         1.334458        -0.012473
 H        -0.522613        -0.124305        -1.059433
 H         2.503704        -1.833421         1.324513
 H         2.347832        -1.986582        -0.613793
 H         5.285867         0.437875         0.456610
 H         4.687579         0.206705        -1.388155
 H         4.958097         2.495264         0.233214
 H         3.982325         2.557608        -1.070257
 H         2.638645         0.588872         2.160071
