19
Iteration:  1125
 C        -0.014330         0.024202        -0.048329
 C         1.470075         0.099441         0.119691
 C         2.153349        -1.133306         0.335269
 C         3.249702        -0.100771        -0.082612
 C         4.619424         0.490743        -0.344040
 C         4.255296         2.062647        -0.050991
 O         3.032652         2.084881         0.794263
 C         2.646663         0.708908         1.023104
 O         2.313300         0.278861        -1.118830
 H        -0.367620        -0.421877         0.882071
 H        -0.471306         0.984253        -0.248176
 H        -0.346647        -0.770639        -0.754465
 H         2.179333        -1.284611         1.481244
 H         2.128918        -2.173735        -0.176867
 H         5.415954         0.108357         0.316609
 H         5.215887         0.347403        -1.190450
 H         4.993187         2.630790         0.444226
 H         3.997857         2.434719        -1.002022
 H         2.681963         0.558753         2.050762
