19
Iteration:  2138
 C         0.020512         0.045814         0.081004
 C         1.463760        -0.007753         0.096351
 C         2.276118        -1.269193         0.346523
 C         3.248340        -0.030817         0.018924
 C         4.591136         0.626360        -0.381694
 C         4.288680         1.992274         0.082850
 O         2.999149         2.064462         0.578643
 C         2.560497         0.774366         0.953711
 O         2.281725         0.327987        -1.106256
 H        -0.089907        -0.283242         1.096043
 H        -0.433130         1.007974        -0.122566
 H        -0.345368        -0.705209        -0.758436
 H         2.139849        -1.712949         1.398102
 H         2.144300        -2.063882        -0.537344
 H         5.349968         0.146164         0.267179
 H         4.910251         0.261732        -1.373883
 H         5.112125         2.417143         0.832705
 H         4.374239         2.645498        -0.697554
 H         2.477611         0.492523         1.995388
