19
Iteration:  2066
 C         0.038292         0.221295         0.033433
 C         1.531919        -0.043104         0.143422
 C         2.291017        -1.434160         0.254406
 C         3.292191        -0.134057        -0.055404
 C         4.648097         0.577753        -0.226256
 C         4.063927         2.053344        -0.199142
 O         2.964201         2.085870         0.784620
 C         2.573859         0.749432         1.022231
 O         2.335600         0.355411        -1.066873
 H        -0.345641         0.206840         1.088414
 H        -0.080659         1.254497        -0.399586
 H        -0.505091        -0.461131        -0.659887
 H         2.167899        -2.018638         1.184143
 H         2.176917        -2.039586        -0.648612
 H         5.447593         0.351508         0.524901
 H         5.283698         0.401353        -1.145055
 H         4.852835         2.688498         0.157645
 H         3.644767         2.422484        -1.231448
 H         2.813266         0.299608         2.015332
