19
Iteration:  3097
 C         0.009785         0.320778         0.049563
 C         1.486031         0.016994         0.101302
 C         2.422748        -1.334142         0.301090
 C         3.315589        -0.223670         0.027504
 C         4.632958         0.549811        -0.243564
 C         4.063580         2.061717        -0.167488
 O         2.949467         2.067101         0.806280
 C         2.538000         0.732281         0.937629
 O         2.327676         0.250956        -1.131062
 H        -0.583522        -0.089661         0.960519
 H         0.031531         1.439704        -0.029818
 H        -0.538545         0.006772        -0.834232
 H         2.483796        -1.818339         1.325140
 H         2.430815        -2.144213        -0.487742
 H         5.373087         0.437896         0.702257
 H         4.998662         0.332205        -1.276574
 H         4.932296         2.676240         0.086911
 H         3.765190         2.217471        -1.190955
 H         2.571734         0.415317         1.908080
