19
Iteration:  4724charge 0 multiplicity 1
 C        -0.051748         0.029153        -0.189923
 C         1.457310         0.105332         0.067567
 C         2.255127        -1.185104         0.549934
 C         3.363099        -0.155673        -0.000590
 C         4.639242         0.472806        -0.321806
 C         4.073385         2.007942        -0.192547
 O         3.074120         2.133856         0.931041
 C         2.558728         0.776268         0.949543
 O         2.376760         0.266769        -1.120197
 H        -0.504971        -0.306291         0.802280
 H        -0.429583         1.084693        -0.605505
 H        -0.164558        -0.694779        -1.091379
 H         2.454001        -1.442130         1.670092
 H         2.039632        -2.141700         0.080973
 H         5.538397         0.372335         0.238088
 H         4.962787         0.400096        -1.374904
 H         4.789949         2.792230         0.012968
 H         3.497272         2.431096        -1.052262
 H         2.592332         0.537626         2.044602
