19
Iteration:  2019charge 0 multiplicity 1
 C         0.022493         0.081552        -0.046978
 C         1.468329        -0.076981         0.058854
 C         2.353842        -1.323204         0.355147
 C         3.244047        -0.078438        -0.057239
 C         4.537909         0.512219        -0.309550
 C         4.182870         2.026555        -0.115418
 O         3.073486         2.133629         0.842243
 C         2.611010         0.772754         0.952117
 O         2.233773         0.388556        -1.027563
 H        -0.364460        -0.398238         0.815089
 H        -0.198969         1.121771         0.034660
 H        -0.467785        -0.189707        -1.033828
 H         2.589858        -1.729059         1.264009
 H         2.302369        -2.095610        -0.458860
 H         5.288650         0.131082         0.386310
 H         5.081267         0.276267        -1.217048
 H         5.047634         2.795903         0.137603
 H         3.767393         2.303457        -1.075133
 H         2.515296         0.511490         2.112092
