19
Iteration:   860charge 0 multiplicity 1
 C         0.033678         0.261102        -0.107304
 C         1.535744        -0.041660         0.087578
 C         2.320744        -1.308125         0.271008
 C         3.301273        -0.110469         0.039782
 C         4.553120         0.495228        -0.284623
 C         4.052360         2.045260        -0.127337
 O         2.998631         2.012882         0.771710
 C         2.561013         0.708781         1.108797
 O         2.384980         0.337620        -1.067164
 H        -0.706268        -0.056953         0.679653
 H        -0.172506         1.343049        -0.036456
 H        -0.403504        -0.115421        -1.053703
 H         2.430719        -1.684605         1.295691
 H         2.279615        -2.017278        -0.480197
 H         5.337916         0.426038         0.503864
 H         4.850158         0.281601        -1.366551
 H         4.947834         2.551512         0.246156
 H         3.906013         2.557674        -1.077588
 H         2.624878         0.550403         2.203266
