19
Iteration:  2467
 C         0.000017         0.099042         0.043097
 C         1.464603        -0.000355         0.180020
 C         2.448214        -1.259211         0.297671
 C         3.214194        -0.092986        -0.113975
 C         4.668769         0.526875        -0.298811
 C         4.345096         2.060756         0.077018
 O         2.940140         2.099467         0.574748
 C         2.566539         0.758289         0.960008
 O         2.106366         0.311574        -1.063328
 H        -0.492966         0.172124         1.020673
 H        -0.246476         1.000918        -0.612591
 H        -0.365928        -0.805275        -0.519130
 H         2.663592        -1.623875         1.313820
 H         2.165633        -1.976847        -0.360859
 H         5.389395        -0.019510         0.320746
 H         4.991315         0.037984        -1.258419
 H         4.905058         2.385477         1.024887
 H         4.581705         2.815437        -0.757637
 H         2.689844         0.384665         1.935855
