19
Iteration:   548
 C         0.026924         0.339785        -0.058729
 C         1.479939        -0.065705         0.186616
 C         2.314656        -1.350742         0.294733
 C         3.294825        -0.183098        -0.093568
 C         4.632646         0.673000        -0.418567
 C         4.093009         2.034638         0.040044
 O         2.989729         2.045564         0.795547
 C         2.518209         0.744624         0.973201
 O         2.387513         0.215738        -1.057173
 H        -0.652578        -0.058857         0.706866
 H        -0.045002         1.446100        -0.203771
 H        -0.374791        -0.062852        -0.991455
 H         2.376309        -1.938562         1.249081
 H         2.347073        -2.049295        -0.463742
 H         5.395976         0.315499         0.343677
 H         4.823911         0.499230        -1.411641
 H         4.897174         2.316667         0.682721
 H         4.010006         2.709111        -0.779263
 H         2.390743         0.378202         2.009360
