19
Iteration:  1487charge 0 multiplicity 1
 C        -0.000119         0.004526         0.064279
 C         1.477170        -0.023847         0.091067
 C         2.357358        -1.219026         0.220758
 C         3.275167        -0.042431         0.057337
 C         4.532322         0.454959        -0.269701
 C         4.249114         1.983357        -0.086821
 O         2.999031         2.108347         0.782259
 C         2.508031         0.832192         0.927826
 O         2.355588         0.391459        -1.123764
 H        -0.258390        -0.336775         1.107669
 H        -0.209433         1.105944        -0.089210
 H        -0.459176        -0.552702        -0.779396
 H         2.373988        -1.752282         1.203359
 H         2.220597        -1.827610        -0.603911
 H         5.164235         0.160080         0.536248
 H         4.713604         0.104085        -1.335489
 H         5.057791         2.389219         0.624613
 H         4.010522         2.439139        -1.163295
 H         2.451420         0.456551         1.943817
