19
Iteration:  4845
 C        -0.114409         0.180090         0.045434
 C         1.495870        -0.024322         0.046438
 C         2.457295        -1.244342         0.433697
 C         3.261366        -0.072165         0.028081
 C         4.630287         0.488006        -0.223383
 C         4.238527         2.028182         0.023007
 O         2.967091         2.118006         0.603278
 C         2.465013         0.811690         0.890264
 O         2.301291         0.165271        -1.195317
 H        -0.535941        -0.207161         1.031545
 H        -0.241765         1.300066        -0.010324
 H        -0.569700        -0.336521        -0.885443
 H         2.692556        -1.491354         1.510130
 H         2.496237        -2.138045        -0.217540
 H         5.251632         0.122616         0.547797
 H         4.993566         0.294537        -1.230346
 H         4.875765         2.538595         0.736365
 H         4.333631         2.744605        -0.874166
 H         2.722110         0.681339         1.967717
