19
Iteration:  3162
 C        -0.025123         0.037588         0.053092
 C         1.478472         0.037527         0.094196
 C         2.312997        -1.261398         0.294805
 C         3.245990        -0.089243        -0.090521
 C         4.605593         0.513645        -0.292518
 C         4.330136         1.957928        -0.093470
 O         2.969200         2.121017         0.774610
 C         2.424241         0.871717         0.991763
 O         2.384527         0.307440        -1.120880
 H        -0.364056        -0.165764         1.161503
 H        -0.441425         1.061485        -0.123924
 H        -0.399622        -0.780682        -0.562175
 H         2.494502        -1.722534         1.366140
 H         2.146984        -2.079795        -0.475927
 H         5.322042         0.039684         0.514324
 H         4.940432         0.381111        -1.334082
 H         5.158375         2.546905         0.344682
 H         4.017180         2.509921        -0.959579
 H         2.523513         0.597994         2.153880
