19
Iteration:   954charge 0 multiplicity 1
 C        -0.019651         0.007173         0.008220
 C         1.416713         0.084658         0.142377
 C         2.242759        -1.257371         0.270094
 C         3.262006        -0.093700         0.011021
 C         4.660291         0.505139        -0.205065
 C         4.345887         2.032236        -0.078084
 O         2.972712         2.066201         0.647396
 C         2.569042         0.779814         0.962680
 O         2.308924         0.399360        -1.085800
 H        -0.495914        -0.186640         0.977536
 H        -0.481949         0.884105        -0.448602
 H        -0.171019        -0.913579        -0.623698
 H         2.269871        -1.924256         1.201522
 H         1.820636        -1.882993        -0.601201
 H         5.222493         0.107472         0.610139
 H         5.075579         0.181398        -1.222131
 H         5.108588         2.398081         0.675390
 H         4.286478         2.832866        -0.902356
 H         2.659371         0.419861         2.046886
