19
Iteration:  4150charge 0 multiplicity 1
 C        -0.003819         0.293075         0.105567
 C         1.516506         0.008679         0.002584
 C         2.431425        -1.401072         0.341091
 C         3.351078        -0.170085        -0.004202
 C         4.596738         0.552351        -0.167917
 C         4.117169         2.045454        -0.129501
 O         2.917783         2.084349         0.736347
 C         2.510797         0.751050         0.961643
 O         2.340686         0.272532        -1.204318
 H        -0.342070        -0.125402         1.040075
 H        -0.160147         1.411055         0.108993
 H        -0.593374        -0.149100        -0.746118
 H         2.407820        -1.743988         1.377230
 H         2.325860        -2.109652        -0.505560
 H         5.240688         0.411866         0.632734
 H         5.165100         0.185558        -1.041946
 H         4.860771         2.670957         0.471405
 H         3.776572         2.404467        -1.180322
 H         2.470100         0.429447         2.049884
