19
Iteration:  2149
 C        -0.034115         0.001708         0.080057
 C         1.492753         0.045460         0.089020
 C         2.263786        -1.268137         0.339587
 C         3.321322        -0.121132        -0.011451
 C         4.650815         0.505222        -0.369279
 C         4.355980         2.011602         0.062429
 O         2.920835         2.124863         0.560326
 C         2.558131         0.795285         1.010832
 O         2.240194         0.388689        -1.080693
 H        -0.548367        -0.470589         0.894550
 H        -0.574158         0.914479        -0.140382
 H        -0.217756        -0.733121        -0.793942
 H         2.373370        -1.641331         1.401941
 H         2.211685        -2.144073        -0.433728
 H         5.501886         0.049669         0.169618
 H         4.779025         0.616434        -1.450243
 H         5.022929         2.299996         0.957586
 H         4.411657         2.673403        -0.732662
 H         2.679865         0.637595         2.069893
