19
Iteration:  4377
 C        -0.064248         0.024421        -0.075127
 C         1.411067        -0.033102         0.045744
 C         2.388539        -1.256718         0.459069
 C         3.267982        -0.088630        -0.007100
 C         4.590153         0.551026        -0.297655
 C         4.234922         2.013019        -0.061223
 O         3.113766         2.103717         0.807907
 C         2.454306         0.872645         0.876853
 O         2.285441         0.302834        -1.094310
 H        -0.546313        -0.054997         0.895536
 H        -0.178783         0.979710        -0.643345
 H        -0.292567        -0.856178        -0.725796
 H         2.574989        -1.390275         1.554325
 H         2.363841        -2.228748        -0.094398
 H         5.386302         0.223825         0.485192
 H         4.927909         0.181020        -1.381918
 H         5.093974         2.571995         0.328628
 H         4.016394         2.520948        -1.009154
 H         2.397733         0.611214         1.925490
