19
Iteration:  1213charge 0 multiplicity 1
 C        -0.029821         0.189460         0.115702
 C         1.487981        -0.008005         0.097292
 C         2.194508        -1.287730         0.343952
 C         3.282776        -0.091992        -0.123587
 C         4.654338         0.457472        -0.275323
 C         4.210211         2.100001         0.042738
 O         2.879715         2.055460         0.665535
 C         2.597975         0.771174         0.934603
 O         2.464379         0.296933        -1.196668
 H        -0.159809        -0.028761         1.195487
 H        -0.259500         1.228888        -0.205543
 H        -0.598904        -0.632944        -0.408367
 H         2.387074        -1.693573         1.423068
 H         1.873788        -2.162255        -0.347755
 H         5.264050         0.127699         0.570592
 H         5.207411         0.362727        -1.185294
 H         4.841511         2.648926         0.738173
 H         4.023635         2.531988        -0.917566
 H         2.665801         0.466885         2.035012
