19
Iteration:  2998
 C        -0.071011        -0.012485         0.045637
 C         1.450108         0.125022         0.096376
 C         2.325109        -1.209483         0.306419
 C         3.283356        -0.138557        -0.112453
 C         4.619558         0.517412        -0.300716
 C         4.297228         2.014106         0.043651
 O         3.003632         2.087372         0.659620
 C         2.585788         0.841378         0.990456
 O         2.253259         0.307281        -1.075793
 H        -0.448436        -0.050068         1.082263
 H        -0.634034         0.848702        -0.410152
 H        -0.381867        -0.900261        -0.509628
 H         2.387054        -1.719318         1.284681
 H         2.253227        -1.929399        -0.573689
 H         5.271056        -0.131393         0.493803
 H         4.965625         0.374099        -1.396605
 H         5.154366         2.449328         0.639326
 H         4.251019         2.712952        -0.776546
 H         2.712983         0.440543         2.026093
