19
Iteration:  3312charge 0 multiplicity 1
 C        -0.082262         0.188098        -0.034535
 C         1.401245        -0.066323         0.065724
 C         2.451801        -1.297939         0.347019
 C         3.264144        -0.079236        -0.070760
 C         4.657036         0.554686        -0.201760
 C         4.248226         2.015572        -0.125555
 O         3.025126         2.124110         0.740273
 C         2.568345         0.709241         1.003579
 O         2.210475         0.287590        -1.085017
 H        -0.534507        -0.093015         0.958363
 H        -0.284784         1.239376        -0.360074
 H        -0.496499        -0.494565        -0.803764
 H         2.564577        -1.499645         1.431930
 H         2.338075        -2.101075        -0.385830
 H         5.188775         0.305271         0.792526
 H         5.264750         0.347271        -1.147527
 H         5.052201         2.744374         0.360908
 H         3.813427         2.251800        -1.145605
 H         2.743623         0.474849         2.045533
