19
Iteration:  3366charge 0 multiplicity 1
 C        -0.049675        -0.010035        -0.018803
 C         1.436495         0.091292         0.034046
 C         2.265623        -1.271657         0.353029
 C         3.233622        -0.141841         0.015922
 C         4.670645         0.485418        -0.233592
 C         4.234303         2.009757        -0.198272
 O         3.006456         2.106690         0.776388
 C         2.592409         0.808869         1.012458
 O         2.342830         0.407776        -1.088847
 H        -0.397106        -0.281230         0.994395
 H        -0.444127         0.940585        -0.413708
 H        -0.256752        -0.819348        -0.729707
 H         2.308204        -1.678471         1.346374
 H         2.101985        -1.871920        -0.518284
 H         5.424254         0.262274         0.639684
 H         5.270657        -0.020484        -1.078483
 H         4.954168         2.771601         0.291186
 H         3.805213         2.348902        -1.186675
 H         2.569475         0.514621         2.114675
