19
Iteration:  1324
 C        -0.066411         0.086283         0.023733
 C         1.466751        -0.018614         0.032259
 C         2.428278        -1.284998         0.289827
 C         3.221891        -0.008106         0.035669
 C         4.616039         0.459806        -0.255541
 C         4.169075         2.012235        -0.126102
 O         3.119465         2.060367         0.850058
 C         2.436859         0.825010         1.004213
 O         2.355929         0.324683        -1.168387
 H        -0.563089        -0.057821         1.031420
 H        -0.389255         1.148776        -0.268861
 H        -0.549953        -0.523658        -0.771060
 H         2.384480        -1.911439         1.299016
 H         2.336451        -1.860344        -0.630151
 H         5.320619         0.201528         0.511521
 H         4.814184         0.290466        -1.370559
 H         4.998713         2.600106         0.268561
 H         3.860635         2.473816        -1.137068
 H         2.443395         0.670020         2.151877
