19
Iteration:  4567charge 0 multiplicity 1
 C        -0.059396        -0.098880        -0.150422
 C         1.423952         0.029154         0.233766
 C         2.347305        -1.237612         0.468521
 C         3.219345        -0.067690        -0.008304
 C         4.628282         0.550285        -0.471044
 C         4.395654         1.954689         0.166522
 O         2.990713         2.138261         0.472619
 C         2.553215         0.869805         1.031018
 O         2.231744         0.333019        -1.018962
 H        -0.901738        -0.000175         0.602402
 H        -0.202684         0.724203        -0.889159
 H        -0.167685        -1.092914        -0.652524
 H         2.599638        -1.530551         1.475951
 H         2.167406        -2.005060        -0.341005
 H         5.419592         0.131204         0.188730
 H         4.681852         0.408714        -1.535859
 H         4.909369         2.168785         1.078283
 H         4.649736         2.757698        -0.496904
 H         2.704943         0.957123         2.104480
