19
Iteration:  2971
 C        -0.037321         0.093437         0.169721
 C         1.473067        -0.022871         0.034839
 C         2.269413        -1.352040         0.336924
 C         3.251402        -0.124325        -0.077125
 C         4.671334         0.564713        -0.315802
 C         4.349731         2.030185         0.092861
 O         2.965609         2.146879         0.694456
 C         2.474644         0.860881         0.939284
 O         2.315633         0.277911        -1.231299
 H        -0.350546        -0.100228         1.219150
 H        -0.378988         1.107201         0.004752
 H        -0.514688        -0.571736        -0.594720
 H         2.235326        -1.643699         1.440431
 H         2.385860        -2.180807        -0.328844
 H         5.367266        -0.002463         0.188864
 H         4.839915         0.439919        -1.354631
 H         5.151464         2.355021         0.733666
 H         4.297540         2.738840        -0.778883
 H         2.562478         0.516386         1.918578
