19
Iteration:  1416
 C         0.029113         0.134844         0.078724
 C         1.483664         0.007669         0.022785
 C         2.376382        -1.277074         0.320082
 C         3.260478        -0.132143        -0.056269
 C         4.597978         0.530201        -0.295597
 C         4.389625         2.009334         0.010271
 O         2.864822         2.115429         0.682199
 C         2.469214         0.769107         0.972374
 O         2.289427         0.301694        -1.093644
 H        -0.241965        -0.298339         1.026774
 H        -0.120620         1.184779         0.098769
 H        -0.438941        -0.309797        -0.791127
 H         2.468975        -1.727184         1.309390
 H         2.124994        -1.969451        -0.577027
 H         5.473554        -0.032985         0.250238
 H         4.674708         0.503116        -1.354210
 H         5.048171         2.402357         0.764745
 H         4.282370         2.690134        -0.770024
 H         2.502940         0.433340         2.029557
