19
Iteration:  2788charge 0 multiplicity 1
 C        -0.036985         0.202766         0.065768
 C         1.502802        -0.025147         0.058722
 C         2.357840        -1.338964         0.279248
 C         3.329290        -0.186688         0.041963
 C         4.634999         0.523388        -0.362089
 C         4.176578         2.048275         0.004663
 O         2.901953         2.122409         0.708823
 C         2.523886         0.746892         1.003172
 O         2.366939         0.289031        -1.096460
 H        -0.501619         0.048783         1.025870
 H        -0.111352         1.221801        -0.272333
 H        -0.529779        -0.414102        -0.725597
 H         2.331655        -1.716057         1.269282
 H         2.229839        -1.976496        -0.567304
 H         5.632359         0.316910         0.183130
 H         4.825693         0.579849        -1.459255
 H         4.971731         2.657864         0.449205
 H         3.994132         2.566310        -0.912573
 H         2.518371         0.532333         2.153091
