19
Iteration:  4779
 C        -0.032464         0.145510        -0.001565
 C         1.415107        -0.010374         0.092882
 C         2.496704        -1.318551         0.322484
 C         3.290851        -0.016206        -0.041456
 C         4.688767         0.432963        -0.136579
 C         4.245548         1.951615        -0.071314
 O         2.917150         2.130449         0.587585
 C         2.462940         0.859796         0.991529
 O         2.281191         0.281247        -1.075660
 H        -0.458294         0.239686         1.052923
 H        -0.160831         1.197961        -0.494005
 H        -0.475200        -0.738463        -0.604804
 H         2.649798        -1.795072         1.382928
 H         2.287918        -2.094369        -0.396549
 H         5.226688         0.206102         0.725738
 H         5.113332         0.323373        -1.127878
 H         4.906845         2.671734         0.409586
 H         3.940720         2.297667        -1.086643
 H         2.508036         0.619953         2.107502
