19
Iteration:  3971charge 0 multiplicity 1
 C         0.060776         0.276753        -0.042235
 C         1.514564        -0.016772         0.064631
 C         2.333326        -1.330742         0.396162
 C         3.349447        -0.115994        -0.037248
 C         4.597396         0.593593        -0.339681
 C         4.185935         2.058523         0.025756
 O         2.862345         2.079171         0.742798
 C         2.586320         0.753097         0.978020
 O         2.319194         0.147104        -1.158621
 H        -0.472886        -0.074981         0.933268
 H        -0.046774         1.378652        -0.108311
 H        -0.420893        -0.188200        -0.933877
 H         2.461158        -1.744134         1.460016
 H         2.094383        -2.185575        -0.179316
 H         5.331599         0.242525         0.330458
 H         4.843669         0.535418        -1.377352
 H         4.973665         2.581304         0.710207
 H         3.829435         2.695821        -0.768031
 H         2.493698         0.561131         2.072489
