19
Iteration:  2930charge 0 multiplicity 1
 C         0.039039         0.258792         0.094565
 C         1.507347        -0.046956         0.208893
 C         2.416197        -1.332639         0.283991
 C         3.315904        -0.124566        -0.163135
 C         4.633849         0.490933        -0.281449
 C         4.345401         2.030299         0.101126
 O         2.797054         2.084490         0.580015
 C         2.585173         0.772406         0.964602
 O         2.156785         0.260339        -1.106389
 H        -0.676034        -0.189836         0.725722
 H        -0.071775         1.352518        -0.066837
 H        -0.262108        -0.206543        -0.918076
 H         2.434909        -1.813598         1.329811
 H         2.174845        -1.997662        -0.529736
 H         5.389225         0.130365         0.552491
 H         5.129724         0.779639        -1.286777
 H         4.893458         2.624725         0.835036
 H         4.367284         2.632204        -0.795583
 H         2.758205         0.636268         2.103767
