19
Iteration:  2011charge 0 multiplicity 1
 C        -0.053762         0.082714        -0.048405
 C         1.455806        -0.088027         0.135262
 C         2.378339        -1.267082         0.300832
 C         3.263337        -0.072687        -0.134807
 C         4.630858         0.498428        -0.291807
 C         4.224154         2.061065        -0.053939
 O         3.094686         2.155188         0.823353
 C         2.584350         0.799585         1.006057
 O         2.179015         0.315855        -1.077066
 H        -0.572271        -0.537053         0.714187
 H        -0.184352         1.157017         0.142381
 H        -0.433483        -0.393235        -1.023119
 H         2.468197        -1.556133         1.391013
 H         2.242708        -2.146828        -0.425098
 H         5.260829         0.103953         0.563109
 H         5.089708         0.401982        -1.337714
 H         5.100025         2.672304         0.162701
 H         3.727334         2.272579        -1.067868
 H         2.649473         0.378467         2.022184
