19
Iteration:  3563
 C        -0.095666         0.125936        -0.050212
 C         1.437015        -0.017763         0.086874
 C         2.374810        -1.346758         0.307247
 C         3.244038        -0.053943         0.115884
 C         4.664010         0.503738        -0.295410
 C         4.301152         2.043925        -0.109916
 O         3.003750         2.032601         0.591000
 C         2.565092         0.792837         1.064932
 O         2.239748         0.390979        -1.038247
 H        -0.524000        -0.323649         0.933519
 H        -0.308243         1.167387        -0.197551
 H        -0.387189        -0.551636        -0.846920
 H         2.569938        -1.637445         1.426108
 H         2.387821        -2.145405        -0.416459
 H         5.387205         0.133084         0.577507
 H         4.924473         0.064606        -1.236520
 H         4.954717         2.728486         0.385832
 H         4.129760         2.514458        -1.074393
 H         2.605314         0.751677         2.205519
