19
Iteration:  3658
 C         0.031047         0.180965        -0.041444
 C         1.491869         0.017650         0.196467
 C         2.365669        -1.273317         0.310598
 C         3.274699        -0.100641        -0.021118
 C         4.558652         0.496827        -0.254814
 C         4.158251         1.960175        -0.166273
 O         2.960724         2.090943         0.758478
 C         2.597071         0.782066         0.971476
 O         2.317480         0.282252        -1.071580
 H        -0.694414         0.219548         0.836196
 H        -0.106620         1.083976        -0.586554
 H        -0.220091        -0.672560        -0.646346
 H         2.515357        -1.700486         1.314885
 H         2.083640        -1.922963        -0.454045
 H         5.154209         0.419679         0.592818
 H         5.076540         0.256147        -1.209708
 H         5.023617         2.488484         0.311189
 H         3.820372         2.589189        -1.073038
 H         2.693511         0.552660         2.025559
