19
Iteration:  2172
 C        -0.070226         0.001460         0.009192
 C         1.426936        -0.047807         0.228773
 C         2.432046        -1.242625         0.362721
 C         3.235094         0.017236        -0.089933
 C         4.586486         0.464687        -0.382653
 C         4.344012         1.966706         0.119817
 O         3.010965         2.194902         0.561708
 C         2.552176         0.840970         0.951193
 O         2.209154         0.317200        -1.067498
 H        -0.642484        -0.479741         0.805286
 H        -0.549684         0.951420        -0.109229
 H        -0.233644        -0.593102        -0.962868
 H         2.776905        -1.797761         1.276470
 H         2.311961        -1.951516        -0.548325
 H         5.120428        -0.098095         0.383037
 H         4.903677         0.378009        -1.454282
 H         5.046810         2.186936         1.021361
 H         4.468222         2.676884        -0.658489
 H         2.717172         0.587579         1.983138
