19
Iteration:   664charge 0 multiplicity 1
 C        -0.101770         0.092507        -0.019724
 C         1.457034         0.074200         0.037142
 C         2.291369        -1.213670         0.315641
 C         3.340180        -0.144901        -0.075229
 C         4.618600         0.517398        -0.273473
 C         4.193970         1.988537         0.037135
 O         3.020609         2.094852         0.768655
 C         2.588624         0.736993         0.980431
 O         2.328014         0.330146        -1.128304
 H        -0.468739        -0.475585         0.836142
 H        -0.520581         1.102519        -0.134896
 H        -0.420183        -0.431487        -0.919919
 H         2.383850        -1.704443         1.305481
 H         2.126154        -2.007597        -0.403657
 H         5.300191         0.197103         0.499733
 H         5.011902         0.375612        -1.274317
 H         5.025581         2.341190         0.700655
 H         4.121182         2.653627        -0.868493
 H         2.732487         0.591285         2.025306
