19
Iteration:  4717charge 0 multiplicity 1
 C        -0.014900         0.047710        -0.173655
 C         1.511252         0.077905         0.030859
 C         2.329412        -1.229554         0.519799
 C         3.251158        -0.145887         0.042156
 C         4.589278         0.503746        -0.271992
 C         4.046432         2.023313        -0.196167
 O         3.084691         2.124493         0.904909
 C         2.584598         0.807167         0.972718
 O         2.376305         0.270422        -1.133842
 H        -0.602228        -0.336995         0.652340
 H        -0.392075         0.995953        -0.403396
 H        -0.280096        -0.601112        -1.010444
 H         2.407131        -1.297674         1.598819
 H         1.878835        -2.029786        -0.064551
 H         5.601430         0.480829         0.242378
 H         4.886262         0.144558        -1.288524
 H         5.068011         2.558452        -0.090380
 H         3.445930         2.333793        -1.042710
 H         2.576616         0.474498         2.029514
