19
Iteration:   934charge 0 multiplicity 1
 C        -0.037480         0.087496         0.067986
 C         1.449737         0.029563        -0.016057
 C         2.374172        -1.257197         0.218941
 C         3.261848        -0.122555         0.026610
 C         4.700478         0.460026        -0.200228
 C         4.188816         1.934749         0.033855
 O         2.985053         2.143055         0.682284
 C         2.527887         0.835189         0.983238
 O         2.316227         0.356840        -1.135721
 H        -0.328223        -0.284776         1.092808
 H        -0.449552         1.123550         0.052537
 H        -0.653613        -0.531301        -0.642906
 H         2.298208        -1.647926         1.354709
 H         2.244698        -2.026686        -0.576557
 H         5.463220        -0.025895         0.404916
 H         5.031944         0.268098        -1.288823
 H         4.909522         2.615649         0.501978
 H         4.116991         2.178485        -1.048269
 H         2.487229         0.782656         2.064741
