19
Iteration:  4294charge 0 multiplicity 1
 C         0.029143         0.200410         0.141155
 C         1.474796        -0.013271         0.068321
 C         2.379496        -1.254859         0.452715
 C         3.254622        -0.085246        -0.195396
 C         4.587710         0.577839        -0.216945
 C         4.324260         2.037373         0.167498
 O         2.927692         2.150877         0.623517
 C         2.510858         0.800546         0.813708
 O         2.242833         0.068501        -1.274812
 H        -0.342317        -0.320626         1.097659
 H        -0.200266         1.274045         0.224768
 H        -0.599001        -0.179378        -0.718471
 H         2.690427        -1.678948         1.490696
 H         2.382282        -1.995135        -0.316113
 H         5.128073         0.143948         0.594856
 H         5.146231         0.396799        -1.060381
 H         4.849184         2.313284         1.133913
 H         4.274230         2.755129        -0.711987
 H         2.729982         0.674020         1.930109
