19
Iteration:  4380charge 0 multiplicity 1
 C        -0.047155         0.030929        -0.100403
 C         1.390543        -0.044946         0.056877
 C         2.399807        -1.269286         0.457201
 C         3.241653        -0.089655        -0.006800
 C         4.609024         0.551371        -0.290567
 C         4.219769         2.044537        -0.078960
 O         3.141187         2.084648         0.827562
 C         2.462152         0.894392         0.910375
 O         2.275614         0.285436        -1.122398
 H        -0.645620        -0.048050         0.903071
 H        -0.229968         1.010955        -0.640306
 H        -0.416879        -0.892794        -0.745987
 H         2.606947        -1.287222         1.555262
 H         2.442984        -2.172993        -0.069670
 H         5.329555         0.187474         0.435364
 H         4.953608         0.202529        -1.293951
 H         5.091502         2.547018         0.283858
 H         4.002798         2.537293        -1.036269
 H         2.411846         0.639906         1.991720
