19
Iteration:   649charge 0 multiplicity 1
 C        -0.011709         0.063673        -0.017978
 C         1.462107         0.076183         0.143827
 C         2.250333        -1.362365         0.227734
 C         3.193698        -0.076832        -0.080761
 C         4.693727         0.465436        -0.207662
 C         4.317458         2.046409        -0.043104
 O         2.968428         2.079845         0.754908
 C         2.549012         0.786951         0.950612
 O         2.325105         0.425746        -1.070984
 H        -0.406661        -0.253904         0.964508
 H        -0.640782         0.933363        -0.207671
 H        -0.131979        -0.766430        -0.742681
 H         2.223954        -1.723436         1.221401
 H         2.050299        -2.050482        -0.626443
 H         5.304362         0.093293         0.617479
 H         5.322268         0.288231        -1.164611
 H         5.010876         2.761892         0.429905
 H         4.093978         2.418209        -1.032374
 H         2.546152         0.277198         1.963457
