19
Iteration:  4752
 C        -0.012474         0.054400        -0.162513
 C         1.421015        -0.021746         0.117730
 C         2.301594        -1.286002         0.418497
 C         3.288274        -0.080337         0.085437
 C         4.567877         0.574896        -0.240717
 C         4.226498         2.052226        -0.191910
 O         3.111205         2.143530         0.768948
 C         2.537876         0.823934         1.001417
 O         2.269314         0.192569        -1.087088
 H        -0.541219         0.075926         0.750130
 H        -0.082004         0.977578        -0.646302
 H        -0.256642        -0.709117        -0.835670
 H         2.436003        -1.790317         1.335432
 H         2.098700        -2.088266        -0.348809
 H         5.388152         0.523594         0.546430
 H         4.839909         0.371052        -1.279517
 H         5.040252         2.668587         0.285501
 H         3.932305         2.643195        -1.065955
 H         2.613448         0.591011         2.055862
