19
Iteration:  4227charge 0 multiplicity 1
 C         0.009184        -0.011772        -0.128051
 C         1.471097        -0.021697         0.251234
 C         2.396521        -1.262157         0.324439
 C         3.254005        -0.092773        -0.016993
 C         4.650840         0.349310        -0.351334
 C         4.266049         1.963360        -0.028807
 O         2.940820         2.191316         0.663373
 C         2.522201         0.891704         1.033342
 O         2.193775         0.466434        -1.006394
 H        -0.675305         0.085657         0.732153
 H         0.026572         0.894515        -0.798308
 H        -0.147739        -0.931316        -0.783138
 H         2.730691        -1.799644         1.260469
 H         2.387363        -2.028927        -0.456161
 H         5.411432         0.094688         0.254062
 H         4.950530         0.215380        -1.391106
 H         5.157145         2.258381         0.627998
 H         4.176553         2.406187        -1.065374
 H         2.504549         0.554097         2.145475
