19
Iteration:  4978charge 0 multiplicity 1
 C         0.050345         0.275044         0.064786
 C         1.462417        -0.045184         0.063830
 C         2.333967        -1.373015         0.294810
 C         3.319354        -0.046119         0.024063
 C         4.657450         0.580447        -0.144214
 C         4.192191         2.031706        -0.126452
 O         2.887274         2.058185         0.563622
 C         2.507069         0.702513         0.991111
 O         2.357819         0.237804        -1.080415
 H        -0.412574         0.039260         1.086473
 H        -0.133703         1.339256        -0.220317
 H        -0.568567        -0.410072        -0.630288
 H         2.358784        -1.712757         1.346748
 H         2.293218        -2.125834        -0.545752
 H         5.295903         0.452416         0.703969
 H         5.245474         0.396854        -0.984094
 H         4.756503         2.700842         0.523045
 H         3.987102         2.502637        -1.119372
 H         2.506953         0.621748         2.121833
