19
Iteration:  1086
 C        -0.003084         0.230730         0.028095
 C         1.443329        -0.078255         0.012179
 C         2.463718        -1.299548         0.165447
 C         3.280189        -0.047831         0.066047
 C         4.618534         0.482335        -0.194361
 C         4.214465         1.942873        -0.171398
 O         3.000791         2.084098         0.731441
 C         2.506835         0.848934         1.070955
 O         2.230690         0.278168        -1.038582
 H        -0.603219        -0.214342         0.843308
 H        -0.124007         1.315813         0.177636
 H        -0.410999         0.045799        -0.988091
 H         2.431731        -1.623206         1.166407
 H         2.593654        -1.999580        -0.599667
 H         5.145153         0.161780         0.738391
 H         5.103536         0.090662        -1.211275
 H         5.096331         2.653858         0.066559
 H         3.761582         2.353026        -1.164904
 H         2.537186         0.518463         2.201595
