19
Iteration:  1005
 C        -0.036680         0.154820        -0.048330
 C         1.429586         0.015989         0.050533
 C         2.426726        -1.266053         0.355240
 C         3.250040        -0.086582        -0.047264
 C         4.566607         0.540845        -0.332972
 C         4.255446         1.984447        -0.007746
 O         3.091926         2.086080         0.818753
 C         2.434523         0.847429         0.989330
 O         2.290304         0.215182        -1.141463
 H        -0.380697         0.242169         0.989962
 H        -0.296784         1.104751        -0.523647
 H        -0.608527        -0.674723        -0.444590
 H         2.620303        -1.707529         1.324362
 H         2.410585        -2.083811        -0.391534
 H         5.357924         0.023697         0.371090
 H         5.026330         0.468110        -1.302706
 H         5.145242         2.360628         0.490184
 H         3.988413         2.581240        -0.862385
 H         2.231517         0.625559         2.042919
