19
Iteration:   487charge 0 multiplicity 1
 C        -0.141302        -0.008068         0.097805
 C         1.377993         0.081848         0.136416
 C         2.264005        -1.265062         0.132600
 C         3.248849        -0.056542        -0.165511
 C         4.645328         0.494966        -0.081464
 C         4.354275         1.987049        -0.014681
 O         3.008578         2.144162         0.731404
 C         2.600464         0.777328         1.006593
 O         2.347684         0.349412        -1.213752
 H        -0.305681        -0.591321         1.008431
 H        -0.656309         0.928906         0.277406
 H        -0.391467        -0.602829        -0.786743
 H         2.330488        -1.727342         1.132459
 H         2.294541        -2.056288        -0.684883
 H         5.235053         0.197319         0.725829
 H         5.289878         0.263191        -1.010599
 H         4.978862         2.657710         0.652853
 H         4.169955         2.541133        -0.955012
 H         2.682784         0.414454         2.045158
