19
Iteration:  4183charge 0 multiplicity 1
 C        -0.071158         0.088687         0.103413
 C         1.480995        -0.009637         0.012815
 C         2.306793        -1.261430         0.337884
 C         3.287002        -0.119392        -0.069344
 C         4.717628         0.561273        -0.164243
 C         4.136862         2.048707        -0.104111
 O         3.065731         2.116921         0.866525
 C         2.489050         0.847330         0.855461
 O         2.350506         0.236237        -1.220783
 H        -0.283795        -0.032364         1.165893
 H        -0.416244         1.118022        -0.213472
 H        -0.628026        -0.715629        -0.462329
 H         2.193714        -1.781364         1.300417
 H         2.013048        -1.995993        -0.416164
 H         5.160385         0.340536         0.718340
 H         5.229467         0.173422        -1.036447
 H         5.014251         2.668159         0.247171
 H         3.999644         2.289219        -1.200105
 H         2.422728         0.473653         1.935236
