19
Iteration:  3810
 C        -0.006951         0.265158         0.032752
 C         1.522163        -0.048116         0.150972
 C         2.303818        -1.353693         0.401244
 C         3.289422        -0.140228         0.001164
 C         4.590522         0.656752        -0.361358
 C         4.252247         2.024113         0.097159
 O         2.900993         2.081780         0.620338
 C         2.534807         0.750677         0.903839
 O         2.379621         0.216118        -1.132174
 H        -0.587765         0.106190         0.972825
 H        -0.137667         1.219084        -0.387690
 H        -0.392169        -0.400576        -0.681552
 H         2.332513        -1.875885         1.354236
 H         2.154998        -2.004538        -0.392831
 H         5.512772         0.215971         0.106375
 H         4.634445         0.565715        -1.552714
 H         4.884691         2.390748         0.833244
 H         4.173725         2.768032        -0.717483
 H         2.627821         0.440507         1.979956
