19
Iteration:  2641charge 0 multiplicity 1
 C        -0.022370         0.122917        -0.043972
 C         1.413967        -0.122513         0.062890
 C         2.422925        -1.276330         0.335502
 C         3.219506        -0.104023        -0.130986
 C         4.596608         0.594872        -0.244148
 C         4.218474         2.075305        -0.032407
 O         3.090864         2.125431         0.841361
 C         2.607764         0.815589         1.012802
 O         2.185047         0.198286        -1.156654
 H        -0.424394         0.295991         0.912685
 H         0.012108         1.139795        -0.493515
 H        -0.451940        -0.524952        -0.760235
 H         2.645246        -1.437458         1.442992
 H         2.269752        -2.139132        -0.291589
 H         5.167228         0.256849         0.610530
 H         5.057398         0.476041        -1.224036
 H         5.075479         2.560050         0.272374
 H         3.841052         2.418763        -1.063912
 H         2.433474         0.551525         2.160012
