19
Iteration:   383charge 0 multiplicity 1
 C         0.014088         0.368184        -0.035788
 C         1.506972        -0.020392         0.054535
 C         2.417342        -1.341164         0.299270
 C         3.303031        -0.175074        -0.044740
 C         4.623373         0.459963        -0.401784
 C         4.120588         2.087709        -0.015349
 O         2.888691         2.050948         0.844903
 C         2.474949         0.681901         0.988440
 O         2.407282         0.288341        -1.046286
 H        -0.586189         0.005972         0.845021
 H         0.094639         1.421865        -0.362268
 H        -0.453702        -0.181175        -0.913808
 H         2.485419        -1.651912         1.350065
 H         2.277693        -2.225939        -0.419549
 H         5.584973         0.144229         0.189671
 H         4.537953         0.585225        -1.479278
 H         4.852419         2.600794         0.723268
 H         3.793055         2.761327        -0.866123
 H         2.679337         0.422418         2.061682
