19
Iteration:   720charge 0 multiplicity 1
 C        -0.040302         0.280213        -0.043540
 C         1.464776         0.014962         0.157305
 C         2.362813        -1.316226         0.315282
 C         3.303167        -0.056507        -0.106764
 C         4.640102         0.547433        -0.302801
 C         4.327217         2.062118         0.135268
 O         2.865766         1.995831         0.660436
 C         2.552851         0.714277         1.026351
 O         2.259543         0.230698        -1.152004
 H        -0.679447        -0.225272         0.674534
 H        -0.282103         1.320500         0.048650
 H        -0.080167        -0.219187        -0.978051
 H         2.577995        -1.702472         1.355870
 H         2.141703        -2.046674        -0.421963
 H         5.473602         0.055471         0.252508
 H         4.836786         0.531523        -1.323237
 H         5.055758         2.522174         0.866488
 H         4.305257         2.740028        -0.765805
 H         2.834495         0.490422         2.015917
