19
Iteration:  4187
 C        -0.089304         0.072630         0.075364
 C         1.449682         0.012017         0.036867
 C         2.291831        -1.296121         0.328080
 C         3.285261        -0.121221        -0.045231
 C         4.708161         0.561346        -0.179342
 C         4.172875         2.054212        -0.116265
 O         3.077921         2.129731         0.851770
 C         2.519471         0.808691         0.871874
 O         2.341179         0.255058        -1.218565
 H        -0.390529        -0.009817         1.135028
 H        -0.493032         0.985792        -0.262169
 H        -0.582231        -0.718007        -0.439653
 H         2.275917        -1.796348         1.361158
 H         1.992684        -2.062233        -0.372705
 H         5.188992         0.314277         0.902830
 H         5.301435         0.269232        -1.052655
 H         4.986398         2.711370         0.220272
 H         4.005307         2.514395        -1.165216
 H         2.484349         0.589335         1.916920
