19
Iteration:  1736
 C         0.028826         0.315974        -0.050099
 C         1.436189        -0.005785         0.190048
 C         2.474729        -1.376323         0.257876
 C         3.283546        -0.177065        -0.090454
 C         4.595222         0.610807        -0.337967
 C         4.132895         2.018509        -0.070211
 O         2.947631         2.066989         0.776968
 C         2.602293         0.721414         1.020859
 O         2.231545         0.290827        -1.032723
 H        -0.462634         0.187012         0.945271
 H        -0.024717         1.323081        -0.514670
 H        -0.354520        -0.450291        -0.762963
 H         2.696666        -1.952449         1.259684
 H         2.104468        -1.997801        -0.548141
 H         5.306790         0.232131         0.477104
 H         5.152256         0.394850        -1.314514
 H         5.029128         2.403012         0.416858
 H         3.870587         2.524178        -0.986220
 H         2.689116         0.372044         2.120059
