19
Iteration:  4762
 C        -0.033793         0.112601        -0.124909
 C         1.466672        -0.069675         0.139508
 C         2.387849        -1.333053         0.370087
 C         3.289641        -0.149833         0.091428
 C         4.551237         0.522137        -0.215233
 C         4.213676         2.083496        -0.170628
 O         3.034016         2.222341         0.744340
 C         2.552430         0.855780         0.958225
 O         2.243520         0.238650        -1.088766
 H        -0.653485         0.133946         0.750044
 H        -0.205644         1.021004        -0.589417
 H        -0.465477        -0.688684        -0.680434
 H         2.529325        -1.763664         1.327604
 H         2.562388        -1.960536        -0.547347
 H         5.267187         0.124429         0.627537
 H         5.036670         0.118780        -1.133537
 H         5.101736         2.505836         0.414614
 H         4.200957         2.335538        -1.216019
 H         2.573453         0.597099         2.016601
