19
Iteration:   847
 C         0.005830         0.202664        -0.145460
 C         1.429516        -0.001451         0.023894
 C         2.408332        -1.314723         0.306940
 C         3.247594        -0.140229         0.108368
 C         4.519679         0.546311        -0.296228
 C         4.145563         1.960862        -0.159146
 O         3.023569         2.072396         0.831437
 C         2.566484         0.768580         1.021964
 O         2.378089         0.373401        -0.994200
 H        -0.275756        -0.212301         0.854926
 H        -0.000487         1.311302        -0.258640
 H        -0.557198        -0.272738        -1.020045
 H         2.401884        -2.050768         1.187340
 H         2.382968        -1.876780        -0.636664
 H         5.398362         0.175973         0.206387
 H         4.756316         0.200093        -1.394482
 H         4.875506         2.520549         0.384238
 H         3.712697         2.387786        -1.051224
 H         2.530343         0.475131         2.056154
