19
Iteration:  4464
 C         0.003801         0.207439         0.055772
 C         1.526154        -0.044324         0.101664
 C         2.431829        -1.356343         0.296489
 C         3.307071        -0.123708         0.055985
 C         4.671272         0.478011        -0.198947
 C         4.168423         2.023360        -0.066243
 O         2.847946         2.144017         0.556646
 C         2.478184         0.776436         0.999487
 O         2.358156         0.322197        -1.071938
 H        -0.552929        -0.074850         0.907524
 H        -0.213151         1.265440        -0.107001
 H        -0.480836        -0.149032        -0.824066
 H         2.573854        -2.025410         1.199049
 H         2.161116        -2.012813        -0.544163
 H         5.353851         0.024038         0.613323
 H         5.092553         0.143342        -1.267533
 H         4.897485         2.732478         0.418702
 H         3.931671         2.348930        -1.126470
 H         2.422464         0.810614         2.080175
