19
Iteration:    89
 C        -0.050368         0.122126        -0.101119
 C         1.466699         0.006240         0.204877
 C         2.293418        -1.306649         0.313083
 C         3.291450        -0.082093        -0.036581
 C         4.661434         0.575959        -0.353241
 C         4.248717         2.033706        -0.043119
 O         2.959711         2.062526         0.736808
 C         2.658892         0.763671         1.072346
 O         2.247579         0.302261        -1.071275
 H        -0.741428        -0.020376         0.709291
 H        -0.076786         1.129652        -0.425536
 H        -0.229156        -0.519216        -0.966297
 H         2.411746        -1.725787         1.314635
 H         2.052727        -2.008874        -0.445809
 H         5.400318         0.124525         0.232034
 H         4.918659         0.336530        -1.325141
 H         4.986901         2.600895         0.518357
 H         4.056362         2.395933        -1.027893
 H         2.584419         0.547158         2.135356
