19
Iteration:   726charge 0 multiplicity 1
 C         0.043425         0.256173        -0.010031
 C         1.432530         0.009055         0.147046
 C         2.318580        -1.285993         0.338959
 C         3.296907        -0.025923        -0.090385
 C         4.669546         0.539099        -0.284899
 C         4.265739         2.031511         0.133992
 O         2.884910         2.018267         0.617310
 C         2.547933         0.637967         0.951305
 O         2.256606         0.290472        -1.104777
 H        -0.482072        -0.321847         0.781739
 H        -0.251985         1.335488        -0.078660
 H        -0.176957        -0.307111        -0.987706
 H         2.355095        -1.644320         1.361433
 H         2.208578        -2.073388        -0.466038
 H         5.538151         0.152092         0.223133
 H         5.071953         0.751938        -1.379310
 H         4.981241         2.353199         0.881361
 H         4.371131         2.569796        -0.800324
 H         2.740023         0.351209         2.065999
