19
Iteration:  3915
 C         0.043695         0.085120        -0.027617
 C         1.507909         0.071486         0.132584
 C         2.326759        -1.346788         0.268662
 C         3.253199        -0.080774        -0.021314
 C         4.613522         0.461294        -0.201679
 C         4.188520         1.981578        -0.174413
 O         2.969416         2.127129         0.767754
 C         2.507789         0.850741         0.990671
 O         2.342610         0.336335        -1.079187
 H        -0.420352        -0.484534         0.848543
 H        -0.411467         1.107393         0.018842
 H        -0.150908        -0.524963        -0.975917
 H         2.406560        -1.846250         1.291356
 H         2.370843        -1.891414        -0.639343
 H         5.278928         0.171738         0.596804
 H         5.099160         0.170847        -1.066761
 H         5.009170         2.684376         0.333399
 H         3.738138         2.411039        -1.047731
 H         2.316529         0.571931         2.058899
