19
Iteration:  2084charge 0 multiplicity 1
 C         0.034559         0.284679         0.086331
 C         1.486574        -0.078629         0.086700
 C         2.419577        -1.275851         0.269269
 C         3.269863        -0.132353        -0.108095
 C         4.560973         0.628339        -0.187893
 C         4.143099         2.097026        -0.145071
 O         3.018098         2.016857         0.764626
 C         2.564801         0.671237         0.957651
 O         2.215484         0.262411        -1.119868
 H        -0.400877         0.255852         1.042164
 H         0.135457         1.217640        -0.387800
 H        -0.466678        -0.543490        -0.485770
 H         2.766248        -1.618478         1.239657
 H         2.261954        -2.149374        -0.452457
 H         5.051351         0.256126         0.748855
 H         5.320356         0.326187        -0.922923
 H         4.960873         2.717356         0.453620
 H         3.959637         2.405268        -1.121481
 H         2.440012         0.379805         2.094980
