19
Iteration:  1746charge 0 multiplicity 1
 C        -0.004196         0.273808        -0.043019
 C         1.524268        -0.039042         0.143403
 C         2.320673        -1.360071         0.324962
 C         3.294748        -0.090786        -0.129895
 C         4.611219         0.494526        -0.349791
 C         4.114732         2.085460        -0.058306
 O         2.939433         2.014245         0.791343
 C         2.649436         0.700706         1.015753
 O         2.282381         0.320422        -1.055218
 H        -0.502907         0.275164         0.983429
 H        -0.108502         1.367651        -0.333712
 H        -0.549756        -0.345382        -0.804782
 H         2.763374        -1.812530         1.325466
 H         2.314065        -2.117885        -0.451483
 H         5.340256         0.255157         0.500062
 H         5.145212         0.536032        -1.374638
 H         4.804501         2.831080         0.473808
 H         3.813692         2.462914        -1.035944
 H         2.820631         0.462588         2.141082
