19
Iteration:  4427
 C        -0.006243         0.088720        -0.167592
 C         1.478506         0.038289         0.129877
 C         2.287654        -1.308977         0.444566
 C         3.309428        -0.125361        -0.017627
 C         4.625834         0.561608        -0.265386
 C         4.085179         2.080699        -0.220145
 O         3.130746         2.078032         0.836721
 C         2.520949         0.787861         1.060505
 O         2.326774         0.273439        -1.093776
 H        -0.553479        -0.113914         0.795077
 H        -0.139898         1.081673        -0.603892
 H        -0.121139        -0.757399        -0.866489
 H         2.255815        -1.686204         1.444605
 H         1.954045        -1.968260        -0.422421
 H         5.308590         0.418338         0.528320
 H         5.024288         0.264054        -1.171421
 H         4.862134         2.890515        -0.031315
 H         3.686686         2.260234        -1.232293
 H         2.319363         0.565045         2.146880
