19
Iteration:  2850
 C        -0.051902         0.012132        -0.026738
 C         1.438830         0.044047         0.095002
 C         2.294133        -1.228997         0.272122
 C         3.262648        -0.067795        -0.115305
 C         4.653308         0.577772        -0.144692
 C         4.242241         2.087862        -0.172280
 O         3.161124         2.037773         0.857428
 C         2.539008         0.748770         0.998714
 O         2.203883         0.305083        -1.134115
 H        -0.559400        -0.010709         1.007241
 H        -0.473581         0.943634        -0.383138
 H        -0.396984        -0.772248        -0.656301
 H         2.567683        -1.682690         1.280894
 H         2.052638        -2.144461        -0.381370
 H         5.247963         0.505096         0.724625
 H         5.271341         0.344022        -0.946671
 H         5.011514         2.704909         0.182038
 H         3.764710         2.260197        -1.197368
 H         2.661978         0.335924         1.952420
