19
Iteration:  1704charge 0 multiplicity 1
 C        -0.027734         0.179501        -0.003823
 C         1.424584        -0.132881         0.049125
 C         2.409630        -1.288006         0.259974
 C         3.268479        -0.099353        -0.020515
 C         4.640261         0.540909        -0.318785
 C         4.211896         1.997775        -0.043230
 O         2.995922         2.112641         0.769664
 C         2.591264         0.770658         1.021121
 O         2.255084         0.328423        -1.079108
 H        -0.341429         0.075807         1.043471
 H        -0.212195         1.215042        -0.260345
 H        -0.796683        -0.464512        -0.448242
 H         2.459460        -1.808965         1.269614
 H         2.219050        -1.946558        -0.561891
 H         5.380160         0.119825         0.425939
 H         4.945704         0.417082        -1.403050
 H         4.984717         2.599335         0.340042
 H         3.973153         2.612553        -0.887661
 H         2.675903         0.550204         2.143029
