19
Iteration:  3597charge 0 multiplicity 1
 C         0.068668         0.339812         0.023256
 C         1.511067        -0.027831         0.139179
 C         2.364770        -1.366628         0.304772
 C         3.237683        -0.122211        -0.089633
 C         4.616316         0.459864        -0.163984
 C         4.041806         2.073054        -0.143103
 O         2.916702         2.143765         0.724003
 C         2.666216         0.806668         0.998000
 O         2.346535         0.180512        -1.135523
 H        -0.361861        -0.181924         0.913098
 H        -0.217276         1.410563         0.036967
 H        -0.324760        -0.113042        -0.912456
 H         2.430920        -1.814851         1.348318
 H         2.114628        -2.167330        -0.445926
 H         5.185262         0.108795         0.843869
 H         5.251743         0.320498        -1.038076
 H         4.794242         2.787733         0.111334
 H         3.645013         2.115658        -1.124295
 H         2.716996         0.444331         2.063372
