19
Iteration:  1097charge 0 multiplicity 1
 C        -0.033464         0.176164        -0.003846
 C         1.457630        -0.007537         0.118432
 C         2.364804        -1.310994         0.280983
 C         3.265210        -0.112272         0.070737
 C         4.619903         0.512590        -0.186960
 C         4.213083         2.042114        -0.151377
 O         3.090404         2.078961         0.742212
 C         2.500871         0.749050         0.957099
 O         2.246624         0.327181        -1.117738
 H        -0.519078        -0.426217         0.789930
 H        -0.211325         1.255479         0.106972
 H        -0.419963        -0.204788        -0.963105
 H         2.465478        -1.869354         1.185379
 H         2.330593        -1.965087        -0.548330
 H         5.430520         0.233562         0.544064
 H         4.999258         0.192872        -1.248193
 H         5.036435         2.713553         0.287221
 H         3.896009         2.332727        -1.226294
 H         2.467609         0.702043         2.099650
