19
Iteration:  3081charge 0 multiplicity 1
 C         0.031579         0.301863         0.068683
 C         1.515896        -0.032222        -0.021994
 C         2.276167        -1.326589         0.351164
 C         3.337535        -0.031426        -0.009804
 C         4.661365         0.605432        -0.234512
 C         4.107958         2.005017        -0.214972
 O         2.987745         2.010771         0.807432
 C         2.537883         0.710489         1.042479
 O         2.359271         0.230831        -1.158463
 H        -0.231060        -0.222684         0.935773
 H        -0.334695         1.354717         0.079683
 H        -0.543940        -0.268827        -0.739076
 H         2.251442        -1.681468         1.398528
 H         2.089878        -2.082138        -0.408595
 H         5.376346         0.274537         0.397795
 H         5.076933         0.342304        -1.210688
 H         4.688391         2.807232         0.259950
 H         3.513876         2.391170        -1.067769
 H         2.472414         0.475731         2.232420
