19
Iteration:  1772
 C         0.022230         0.197348         0.079920
 C         1.523795         0.055987         0.047801
 C         2.261844        -1.307849         0.283414
 C         3.327397        -0.171554        -0.002731
 C         4.626453         0.599560        -0.301034
 C         4.134635         1.981995        -0.115197
 O         3.015307         2.024061         0.843549
 C         2.514681         0.740669         0.954525
 O         2.329236         0.311454        -1.144152
 H        -0.241548        -0.223856         1.026015
 H        -0.339599         1.189146         0.070075
 H        -0.512901        -0.425221        -0.666496
 H         2.499411        -1.733367         1.212679
 H         2.112175        -2.039954        -0.538879
 H         5.389168         0.555620         0.439574
 H         5.027784         0.551984        -1.263099
 H         4.870729         2.629470         0.243028
 H         3.833927         2.485447        -1.049104
 H         2.443054         0.536036         2.013060
