19
Iteration:  2195charge 0 multiplicity 1
 C        -0.008483         0.005659         0.037303
 C         1.447149        -0.047867         0.085565
 C         2.407094        -1.277046         0.364390
 C         3.245873        -0.075310        -0.056182
 C         4.626348         0.542654        -0.312680
 C         4.465999         2.065582         0.135572
 O         3.015567         2.144977         0.630496
 C         2.547839         0.877569         0.914389
 O         2.058188         0.233154        -1.172237
 H        -0.399765        -0.280935         1.013857
 H        -0.304459         1.044031         0.131710
 H        -0.542184        -0.418438        -0.876727
 H         2.495797        -1.525149         1.474721
 H         2.231755        -2.181575        -0.251960
 H         5.341022         0.014736         0.321277
 H         4.663843         0.491234        -1.443550
 H         5.111113         2.394559         1.049164
 H         4.439214         2.805115        -0.711218
 H         2.521691         0.563836         1.965925
