19
Iteration:  2266charge 0 multiplicity 1
 C        -0.070008         0.244039         0.086283
 C         1.444807        -0.028473         0.176070
 C         2.481130        -1.315231         0.262442
 C         3.322760        -0.111534        -0.047882
 C         4.694355         0.515789        -0.263226
 C         4.290117         2.032241         0.001183
 O         2.860331         2.047734         0.565807
 C         2.551879         0.732152         0.999485
 O         2.189214         0.317602        -1.106536
 H        -0.463787         0.345422         1.151217
 H        -0.242086         1.226302        -0.391395
 H        -0.605850        -0.588696        -0.425601
 H         2.877038        -1.873359         1.060275
 H         2.153434        -1.998783        -0.584400
 H         5.321076         0.283334         0.623344
 H         5.096119         0.338751        -1.224308
 H         4.993708         2.413220         0.742294
 H         4.337184         2.591788        -1.015280
 H         2.675431         0.637776         2.172887
