19
Iteration:  2395charge 0 multiplicity 1
 C         0.010309         0.165842         0.113248
 C         1.460361        -0.025645         0.100581
 C         2.346767        -1.286807         0.279454
 C         3.296856        -0.096418        -0.029775
 C         4.631022         0.469231        -0.221771
 C         4.204952         2.071742        -0.064900
 O         2.921774         2.099644         0.655551
 C         2.552450         0.758364         0.923524
 O         2.296743         0.310807        -1.088523
 H        -0.361801        -0.267273         1.094865
 H        -0.256642         1.229736         0.028978
 H        -0.486897        -0.335564        -0.664322
 H         2.596116        -1.756399         1.283472
 H         2.241350        -2.067007        -0.575670
 H         5.467041         0.072603         0.409862
 H         5.022203         0.299840        -1.219382
 H         5.117304         2.440339         0.422835
 H         4.015855         2.672469        -1.033455
 H         2.635629         0.521877         2.009737
