19
Iteration:  2045
 C        -0.029680         0.180250         0.008445
 C         1.497668         0.069911         0.161886
 C         2.350567        -1.223562         0.177282
 C         3.381339        -0.127447         0.083692
 C         4.637298         0.530816        -0.324023
 C         4.072012         1.998803        -0.159880
 O         2.972070         2.024082         0.765742
 C         2.548928         0.686942         1.075615
 O         2.374779         0.328379        -1.047072
 H        -0.494285        -0.113956         1.013744
 H        -0.487183         1.188896        -0.283191
 H        -0.354416        -0.414195        -0.871591
 H         2.347621        -1.792829         1.232520
 H         2.214477        -1.933905        -0.642596
 H         5.609760         0.391655         0.231134
 H         5.006385         0.203682        -1.353957
 H         4.784869         2.770531        -0.026507
 H         3.484045         2.218294        -1.162122
 H         2.373108         0.505097         2.134052
