19
Iteration:  3342
 C         0.002003        -0.006384         0.025610
 C         1.437127         0.029192         0.115561
 C         2.302023        -1.207644         0.199510
 C         3.282526        -0.137520         0.103002
 C         4.625301         0.487658        -0.213150
 C         4.140809         1.969055        -0.147957
 O         3.104918         2.157219         0.708628
 C         2.473866         0.800182         1.012913
 O         2.357646         0.390994        -1.057777
 H        -0.463815        -0.217724         0.932827
 H        -0.341248         0.925582        -0.504447
 H        -0.133358        -0.858845        -0.674229
 H         2.267514        -1.680109         1.132159
 H         2.075221        -1.825482        -0.723883
 H         5.400572         0.112758         0.505285
 H         5.082856         0.092158        -1.193251
 H         4.950573         2.625391         0.047195
 H         3.773239         2.169116        -1.206031
 H         2.353473         0.732083         2.168781
