19
Iteration:  2339charge 0 multiplicity 1
 C        -0.071763         0.040914        -0.015731
 C         1.470273         0.038858         0.088194
 C         2.308787        -1.300346         0.321724
 C         3.262070        -0.087801         0.006638
 C         4.634743         0.515141        -0.295562
 C         4.118627         2.034655        -0.251853
 O         3.148186         2.134278         0.880358
 C         2.532967         0.810992         1.056153
 O         2.343169         0.305256        -1.111576
 H        -0.601448        -0.466009         0.814815
 H        -0.282398         1.132836         0.032010
 H        -0.427571        -0.359373        -0.926524
 H         2.337614        -1.859231         1.341130
 H         2.125669        -2.000984        -0.477231
 H         5.326570         0.171814         0.481146
 H         4.928436         0.332528        -1.340487
 H         5.071515         2.514648        -0.008478
 H         3.654086         2.405896        -1.182751
 H         2.470255         0.523306         2.094336
