19
Iteration:  1670
 C        -0.025305        -0.014617         0.082858
 C         1.474749         0.095322         0.123325
 C         2.297982        -1.170083         0.271652
 C         3.280986        -0.104094        -0.104926
 C         4.630424         0.466492        -0.181482
 C         4.242288         2.036840        -0.024144
 O         3.058642         2.063129         0.750355
 C         2.568591         0.787395         0.935656
 O         2.253168         0.330288        -1.212587
 H        -0.149802        -0.402982         1.133343
 H        -0.673545         0.899755         0.042025
 H        -0.368260        -0.704550        -0.690712
 H         2.333559        -1.749430         1.286047
 H         1.764764        -1.633791        -0.517823
 H         5.511562         0.269367         0.536725
 H         5.101905         0.410359        -1.265751
 H         4.910064         2.612822         0.568479
 H         3.882688         2.348090        -0.984603
 H         2.589620         0.543460         2.082939
