19
Iteration:    70
 C         0.018618         0.217050         0.037615
 C         1.475705        -0.080224         0.065408
 C         2.484536        -1.355661         0.293035
 C         3.227874        -0.129723        -0.028701
 C         4.564314         0.498641        -0.240293
 C         4.237922         2.030732        -0.082594
 O         2.965636         2.092963         0.706660
 C         2.476629         0.763867         0.913973
 O         2.249865         0.385079        -1.033968
 H        -0.410408         0.232024         1.090502
 H        -0.071683         1.246697        -0.406283
 H        -0.611959        -0.479874        -0.630204
 H         2.594037        -1.894606         1.276991
 H         2.531894        -2.067637        -0.569816
 H         5.153213         0.171461         0.748547
 H         5.104211         0.235969        -1.180290
 H         5.070929         2.495337         0.490506
 H         4.213528         2.608390        -1.009816
 H         2.668285         0.520142         1.960634
