19
Iteration:  4669charge 0 multiplicity 1
 C        -0.076625         0.185825         0.022625
 C         1.503401         0.008765         0.151253
 C         2.404334        -1.350157         0.311180
 C         3.294247        -0.110684        -0.010466
 C         4.639916         0.495146        -0.044177
 C         4.214290         2.001052        -0.132261
 O         2.866480         2.077972         0.523203
 C         2.601606         0.772618         0.987155
 O         2.300629         0.340927        -1.106636
 H        -0.617328        -0.275943         0.900472
 H        -0.308608         1.339504        -0.051499
 H        -0.444122        -0.336750        -0.921298
 H         2.539911        -1.722530         1.364999
 H         2.436246        -2.050974        -0.516942
 H         5.242678         0.209643         0.776801
 H         5.377204         0.402490        -0.836037
 H         4.847972         2.729577         0.340669
 H         3.993765         2.275361        -1.197192
 H         2.803623         0.746564         2.081420
