19
Iteration:   134
 C        -0.087620         0.045087        -0.071356
 C         1.394913        -0.092104         0.002945
 C         2.396348        -1.247026         0.392369
 C         3.233502        -0.043210         0.016874
 C         4.571987         0.519185        -0.305544
 C         4.320149         1.997813        -0.145712
 O         3.127512         2.091759         0.915742
 C         2.474214         0.858686         1.034273
 O         2.277322         0.337412        -1.163095
 H        -0.613427        -0.508194         0.745423
 H        -0.298510         1.111179         0.008217
 H        -0.300626        -0.182523        -1.144807
 H         2.329970        -1.535186         1.447827
 H         2.441269        -2.035891        -0.378492
 H         5.463478         0.121580         0.220113
 H         4.958578         0.450792        -1.267047
 H         5.178452         2.597571         0.225362
 H         3.767735         2.278666        -1.010083
 H         2.479735         0.428545         2.067360
