19
Iteration:  2373
 C        -0.043404         0.088152        -0.024749
 C         1.470399         0.034414         0.246308
 C         2.399152        -1.306542         0.325669
 C         3.303755        -0.064714        -0.112617
 C         4.606661         0.541302        -0.231102
 C         4.182923         1.957375        -0.171679
 O         2.994473         2.068144         0.698744
 C         2.590018         0.728896         1.039732
 O         2.224817         0.386399        -1.070072
 H        -0.799594        -0.304163         0.699718
 H        -0.202321         1.193957        -0.043620
 H        -0.246537        -0.146324        -1.002252
 H         2.584719        -1.779123         1.370749
 H         2.084853        -2.054731        -0.488342
 H         5.329979         0.242914         0.541590
 H         5.243833         0.380603        -1.094752
 H         4.961165         2.586459         0.355923
 H         4.134202         2.324985        -1.291143
 H         2.806712         0.588804         2.073725
