19
Iteration:  4498charge 0 multiplicity 1
 C        -0.069676         0.175872         0.149691
 C         1.488237        -0.042921         0.054603
 C         2.356092        -1.337234         0.404125
 C         3.347194        -0.093424        -0.105064
 C         4.678318         0.519560        -0.114591
 C         4.277430         2.105840         0.112715
 O         2.896673         2.155075         0.520819
 C         2.590107         0.781568         0.843142
 O         2.194807         0.170673        -1.248416
 H        -0.480683        -0.233252         1.053997
 H        -0.110961         1.232768         0.201888
 H        -0.546850        -0.259146        -0.717601
 H         2.636108        -1.497426         1.497234
 H         2.147777        -2.171118        -0.201853
 H         5.097374         0.036619         0.851567
 H         5.476189         0.528434        -0.991544
 H         4.879470         2.726892         0.789926
 H         4.200117         2.671895        -0.848769
 H         2.742149         0.488528         1.888140
