19
Iteration:  2091
 C        -0.009568         0.262944         0.087849
 C         1.477809        -0.038295         0.083464
 C         2.485744        -1.273542         0.309565
 C         3.276730        -0.101426        -0.148644
 C         4.625957         0.579208        -0.168991
 C         4.153358         2.061788        -0.090246
 O         2.994248         1.997136         0.776646
 C         2.540742         0.743805         0.928840
 O         2.178970         0.228145        -1.144762
 H        -0.343883         0.326854         1.169616
 H        -0.068444         1.290726        -0.419945
 H        -0.601465        -0.374852        -0.552257
 H         2.770389        -1.747832         1.340326
 H         2.374734        -2.011360        -0.467410
 H         5.215930         0.186866         0.670639
 H         5.333013         0.465099        -0.990878
 H         4.856457         2.680214         0.395360
 H         3.957851         2.485737        -1.118029
 H         2.642016         0.325334         1.874015
