19
Iteration:  3680
 C        -0.012048         0.002776        -0.088397
 C         1.428333         0.032134         0.185897
 C         2.370284        -1.344890         0.300442
 C         3.224705        -0.073933         0.004260
 C         4.672071         0.457069        -0.269005
 C         4.367712         2.022020        -0.060600
 O         3.001596         2.148641         0.633550
 C         2.569249         0.817542         1.057277
 O         2.142427         0.395889        -1.026133
 H        -0.739881         0.102506         0.771735
 H        -0.183717         0.879832        -0.665250
 H        -0.292065        -0.845955        -0.667367
 H         2.647726        -1.773565         1.261649
 H         2.099791        -2.001991        -0.443418
 H         5.373121         0.005883         0.395292
 H         5.056357         0.264688        -1.303467
 H         5.070677         2.742592         0.410670
 H         4.119806         2.425373        -1.117225
 H         2.619601         0.594051         2.121506
