19
Iteration:  1337charge 0 multiplicity 1
 C        -0.093670         0.181252         0.001101
 C         1.389747         0.020341         0.061384
 C         2.438843        -1.348370         0.310939
 C         3.275407        -0.075507        -0.101253
 C         4.637891         0.553635        -0.244964
 C         4.258736         2.013844        -0.090777
 O         3.035767         2.105730         0.868860
 C         2.521008         0.768282         0.893119
 O         2.270830         0.311363        -1.085950
 H        -0.452369        -0.057990         1.033184
 H        -0.454144         1.142483        -0.436411
 H        -0.417996        -0.704958        -0.559532
 H         2.587773        -1.822992         1.406625
 H         2.377988        -2.154462        -0.443854
 H         5.266032         0.097297         0.580306
 H         5.245363         0.151847        -1.142821
 H         4.950563         2.718577         0.308408
 H         3.872762         2.362039        -1.088027
 H         2.506844         0.292124         1.899299
