19
Iteration:  3677charge 0 multiplicity 1
 C         0.023791         0.023714        -0.092407
 C         1.437141         0.047140         0.205369
 C         2.379030        -1.320634         0.306994
 C         3.218452        -0.084813        -0.023646
 C         4.643062         0.476014        -0.266816
 C         4.316312         2.017927        -0.062487
 O         3.016812         2.135946         0.628634
 C         2.564236         0.827346         1.069619
 O         2.146098         0.371951        -1.015879
 H        -0.639274         0.094797         0.731721
 H        -0.207470         0.909929        -0.729458
 H        -0.312971        -0.845207        -0.683838
 H         2.602048        -1.853568         1.214875
 H         2.157751        -1.977277        -0.546980
 H         5.425011        -0.099303         0.423209
 H         5.140059         0.252921        -1.316223
 H         5.015480         2.705360         0.399692
 H         4.143965         2.349521        -1.077035
 H         2.603207         0.556213         2.182989
