19
Iteration:  2431
 C        -0.005086         0.174193         0.219294
 C         1.469984        -0.024595        -0.003764
 C         2.317060        -1.305426         0.315893
 C         3.303505        -0.068217        -0.100126
 C         4.633517         0.501675        -0.272896
 C         4.288508         2.115869         0.059926
 O         2.926637         2.131391         0.676605
 C         2.505777         0.728293         0.883922
 O         2.293703         0.191987        -1.180188
 H        -0.171577         0.221070         1.285120
 H        -0.275965         1.139550        -0.144412
 H        -0.672933        -0.612347        -0.215446
 H         2.537360        -1.675617         1.308074
 H         2.217011        -2.112898        -0.450173
 H         5.401883         0.225040         0.446081
 H         4.860070         0.411980        -1.333303
 H         4.926950         2.461055         0.938288
 H         4.458638         2.867886        -0.876266
 H         2.554103         0.486766         1.897307
