19
Iteration:   490charge 0 multiplicity 1
 C        -0.139412         0.014961         0.081943
 C         1.384140         0.049287         0.138249
 C         2.272990        -1.239881         0.144012
 C         3.265788        -0.043561        -0.165536
 C         4.632944         0.493889        -0.103739
 C         4.350429         2.014744         0.000295
 O         3.006557         2.120918         0.713990
 C         2.594717         0.776035         0.987815
 O         2.349844         0.347533        -1.171738
 H        -0.368435        -0.600096         0.970556
 H        -0.617621         0.950529         0.325910
 H        -0.372155        -0.588689        -0.816535
 H         2.419851        -1.785368         1.071955
 H         2.174262        -2.051238        -0.646221
 H         5.230877         0.120725         0.727982
 H         5.221837         0.126905        -0.940191
 H         4.930962         2.658210         0.582406
 H         4.163005         2.604293        -0.917899
 H         2.700494         0.345511         1.998642
