19
Iteration:  2609charge 0 multiplicity 1
 C        -0.010982         0.230327         0.040051
 C         1.491307         0.067331         0.057531
 C         2.317531        -1.333218         0.286287
 C         3.346340        -0.248765        -0.021714
 C         4.610680         0.599062        -0.251379
 C         4.067867         2.041520        -0.145300
 O         2.941136         2.055618         0.770925
 C         2.565127         0.737600         1.033889
 O         2.426302         0.278845        -1.081016
 H        -0.415942         0.064229         1.028557
 H        -0.250665         1.261351        -0.297256
 H        -0.382428        -0.443809        -0.676975
 H         2.535777        -1.760479         1.258521
 H         2.157483        -2.118764        -0.428380
 H         5.475345         0.241063         0.306712
 H         4.967509         0.475580        -1.281288
 H         4.785513         2.796478         0.225467
 H         3.713123         2.365058        -1.223302
 H         2.409091         0.688705         2.097784
