19
Iteration:  2203charge 0 multiplicity 1
 C        -0.074249         0.064112         0.078767
 C         1.457923        -0.046344         0.064584
 C         2.348825        -1.250125         0.431144
 C         3.315296        -0.056756        -0.048967
 C         4.654693         0.512516        -0.347074
 C         4.354034         2.081218         0.179529
 O         3.033024         2.176737         0.648035
 C         2.543469         0.807285         0.849272
 O         2.120006         0.224465        -1.201134
 H        -0.377482        -0.473541         0.967351
 H        -0.361458         1.108430         0.065072
 H        -0.662548        -0.602708        -0.630913
 H         2.686106        -1.692218         1.408717
 H         2.192798        -2.124267        -0.347162
 H         5.432154        -0.115899         0.131453
 H         4.925129         0.464993        -1.407983
 H         5.054844         2.420753         0.944464
 H         4.394940         2.728114        -0.616390
 H         2.586074         0.581294         1.875360
