19
Iteration:   104
 C        -0.014035         0.125611        -0.149715
 C         1.484226         0.158700         0.139697
 C         2.275911        -1.279377         0.419143
 C         3.296727        -0.204706         0.005926
 C         4.590282         0.515581        -0.395486
 C         4.269093         2.057962        -0.077976
 O         2.994210         2.101571         0.842327
 C         2.594608         0.740350         0.994284
 O         2.271530         0.275258        -1.054039
 H        -0.581899        -0.510631         0.621851
 H        -0.707265         0.981650        -0.437061
 H        -0.030744        -0.621596        -1.014484
 H         2.310697        -1.868375         1.377806
 H         2.114176        -1.932302        -0.502331
 H         5.611946         0.252273         0.132604
 H         4.745675         0.671188        -1.512713
 H         5.087520         2.643898         0.417449
 H         3.859168         2.693228        -0.841680
 H         2.901678         0.346132         1.963392
