19
Iteration:   216charge 0 multiplicity 1
 C        -0.005492         0.300011         0.072781
 C         1.488953        -0.001095         0.082006
 C         2.418389        -1.374095         0.231634
 C         3.301595        -0.042194         0.031729
 C         4.613007         0.560622        -0.262012
 C         4.210840         2.004041         0.022774
 O         2.888372         2.035310         0.707630
 C         2.429926         0.761127         0.943242
 O         2.379649         0.242227        -1.149115
 H        -0.334378         0.262766         1.137376
 H         0.008535         1.371937        -0.221976
 H        -0.625776        -0.402307        -0.525744
 H         2.561567        -1.966660         1.172297
 H         2.320229        -2.118830        -0.534910
 H         5.426294         0.243868         0.393305
 H         4.749756         0.246021        -1.374201
 H         4.961227         2.509908         0.572873
 H         4.209216         2.578287        -0.935992
 H         2.469867         0.382903         1.949324
