19
Iteration:  3694
 C        -0.197156        -0.038780        -0.021437
 C         1.422202        -0.087299         0.118717
 C         2.342679        -1.235084         0.346499
 C         3.321061        -0.066466         0.005138
 C         4.656966         0.494413        -0.265035
 C         4.423410         1.987345        -0.087692
 O         3.006627         2.141552         0.690163
 C         2.566074         0.847721         0.925667
 O         2.209914         0.443026        -1.055271
 H        -0.689177        -0.158095         0.972815
 H        -0.528740         0.841730        -0.618529
 H        -0.455546        -0.934301        -0.644079
 H         2.272851        -1.617760         1.416336
 H         2.399404        -2.146512        -0.363622
 H         5.404825         0.166327         0.393599
 H         4.933587         0.184144        -1.206618
 H         5.210832         2.249646         0.664088
 H         4.387382         2.658009        -0.974761
 H         2.698637         0.644013         1.975928
