19
Iteration:   671
 C        -0.062371         0.080464        -0.056861
 C         1.433423         0.045423         0.074307
 C         2.333551        -1.209533         0.323069
 C         3.287330        -0.120594        -0.019758
 C         4.588188         0.514110        -0.287665
 C         4.289441         2.016067         0.036317
 O         2.980905         2.047489         0.793539
 C         2.608071         0.761365         0.983024
 O         2.297718         0.296307        -1.191937
 H        -0.535256        -0.271350         0.875256
 H        -0.189521         1.164322         0.163892
 H        -0.503149        -0.277640        -1.022857
 H         2.325137        -1.555140         1.336323
 H         2.200805        -2.036701        -0.426340
 H         5.426956         0.244337         0.358846
 H         4.963551         0.576654        -1.390719
 H         5.072514         2.491373         0.645185
 H         4.235212         2.603865        -0.865169
 H         2.338748         0.559639         2.104807
