19
Iteration:  3036
 C        -0.049437         0.085625        -0.040830
 C         1.414482         0.034796         0.137604
 C         2.452811        -1.268760         0.256723
 C         3.206434        -0.000928        -0.034516
 C         4.646009         0.465881        -0.283144
 C         4.253286         1.977800        -0.081859
 O         3.066709         2.083674         0.727029
 C         2.552158         0.794677         1.029073
 O         2.186041         0.300266        -1.043922
 H        -0.516961         0.025936         0.942932
 H        -0.258509         1.067515        -0.449149
 H        -0.408415        -0.695182        -0.737015
 H         2.541883        -1.698174         1.246885
 H         2.536564        -1.938193        -0.543681
 H         5.216026         0.149153         0.484381
 H         5.208681         0.298846        -1.144228
 H         4.915914         2.688236         0.422669
 H         3.911010         2.359600        -1.100632
 H         2.622011         0.583096         2.190049
