19
Iteration:   550
 C         0.031753         0.348388        -0.060599
 C         1.478567        -0.070096         0.186891
 C         2.291350        -1.375410         0.287744
 C         3.311399        -0.186667        -0.091250
 C         4.639875         0.699053        -0.407433
 C         4.094576         2.033412         0.035269
 O         2.993413         2.049542         0.803740
 C         2.514985         0.739781         0.973391
 O         2.382228         0.209120        -1.064101
 H        -0.627970        -0.038652         0.729726
 H        -0.098799         1.435028        -0.220452
 H        -0.363947        -0.113793        -0.975049
 H         2.388765        -1.871961         1.277423
 H         2.234826        -2.115357        -0.493806
 H         5.397014         0.366315         0.330818
 H         4.859518         0.495120        -1.456842
 H         4.961725         2.337734         0.683986
 H         3.993949         2.705486        -0.799192
 H         2.421765         0.445382         2.041754
