19
Iteration:  2349
 C        -0.008861         0.094214        -0.043909
 C         1.462326         0.014667         0.119186
 C         2.325671        -1.334100         0.298876
 C         3.285728        -0.068868         0.016090
 C         4.613897         0.468252        -0.335099
 C         4.170541         2.063765        -0.204614
 O         3.113924         2.109848         0.844120
 C         2.575110         0.804941         1.033873
 O         2.227393         0.323579        -1.068119
 H        -0.485152        -0.530876         0.741897
 H        -0.475252         1.137912        -0.045082
 H        -0.295253        -0.351494        -1.009792
 H         2.198453        -1.802007         1.410680
 H         2.357344        -2.049667        -0.489794
 H         5.280809         0.260208         0.525710
 H         5.234451         0.065293        -1.180538
 H         4.739955         2.976983         0.077744
 H         3.804441         2.200232        -1.189775
 H         2.614213         0.699474         2.172123
