19
Iteration:  4955charge 0 multiplicity 1
 C        -0.025888         0.193945         0.044549
 C         1.415380         0.002570         0.168946
 C         2.344382        -1.370138         0.290932
 C         3.354194        -0.174995        -0.059698
 C         4.665190         0.560588        -0.013553
 C         4.213406         2.070046        -0.174674
 O         2.983172         2.201577         0.741762
 C         2.548522         0.792852         0.861984
 O         2.285953         0.162168        -1.212933
 H        -0.445697         0.050037         1.106098
 H        -0.255151         1.221345        -0.270306
 H        -0.699431        -0.543057        -0.525238
 H         2.424970        -1.913997         1.266250
 H         2.141451        -2.033925        -0.620446
 H         5.159029         0.364380         0.923078
 H         5.437364         0.494090        -0.731463
 H         4.742600         2.894432         0.284077
 H         3.844547         2.316227        -1.247213
 H         2.688587         0.481348         1.962452
