19
Iteration:  1743charge 0 multiplicity 1
 C        -0.005577         0.284728        -0.055862
 C         1.496548        -0.033092         0.157632
 C         2.356594        -1.373076         0.319187
 C         3.294802        -0.112713        -0.126049
 C         4.603921         0.515941        -0.355737
 C         4.117610         2.071224        -0.057059
 O         2.937868         2.024218         0.788331
 C         2.645794         0.717607         1.024575
 O         2.270416         0.312197        -1.043446
 H        -0.402388         0.289458         1.011290
 H        -0.111822         1.369017        -0.385290
 H        -0.461852        -0.345381        -0.825870
 H         2.823407        -1.836145         1.236214
 H         2.255085        -2.101070        -0.506251
 H         5.299026         0.288801         0.470225
 H         5.182211         0.528947        -1.324920
 H         4.906331         2.726919         0.540920
 H         3.786564         2.417406        -1.068334
 H         2.792924         0.477375         2.093569
