19
Iteration:  2638charge 0 multiplicity 1
 C        -0.000688         0.149353        -0.033324
 C         1.429792        -0.122149         0.059970
 C         2.376165        -1.267936         0.333405
 C         3.237789        -0.086377        -0.114571
 C         4.615040         0.598569        -0.243755
 C         4.174017         2.061326        -0.079207
 O         3.087082         2.109167         0.855537
 C         2.585712         0.820253         1.011603
 O         2.196727         0.186469        -1.161533
 H        -0.413901         0.288643         0.944762
 H        -0.007647         1.154647        -0.484151
 H        -0.462766        -0.582698        -0.814962
 H         2.718830        -1.521582         1.445378
 H         2.338744        -2.127002        -0.300284
 H         5.222876         0.227690         0.563394
 H         5.128273         0.451383        -1.222648
 H         4.972086         2.578984         0.441001
 H         3.907234         2.465770        -1.029885
 H         2.561571         0.544642         2.179731
