19
Iteration:  4956
 C        -0.025691         0.192867         0.047428
 C         1.415554        -0.007915         0.173093
 C         2.339758        -1.364900         0.287834
 C         3.356646        -0.184214        -0.057611
 C         4.669187         0.568099        -0.016727
 C         4.207885         2.076593        -0.173992
 O         2.981791         2.195382         0.734776
 C         2.550793         0.802545         0.861933
 O         2.289964         0.162120        -1.207969
 H        -0.464957         0.067121         1.120145
 H        -0.229227         1.245196        -0.272830
 H        -0.728368        -0.526216        -0.543800
 H         2.398216        -1.956811         1.245451
 H         2.147642        -2.025340        -0.617975
 H         5.140319         0.345564         0.923323
 H         5.428447         0.481862        -0.729332
 H         4.758257         2.910396         0.273134
 H         3.877269         2.322784        -1.203509
 H         2.681486         0.467614         1.943387
