19
Iteration:   232
 C         0.031979         0.296912        -0.038084
 C         1.476828        -0.150196         0.051426
 C         2.391665        -1.317884         0.329558
 C         3.273523        -0.142654        -0.107330
 C         4.558923         0.510551        -0.312633
 C         4.219941         2.093402         0.069412
 O         2.937469         2.156781         0.800064
 C         2.596556         0.751396         0.998122
 O         2.245736         0.182527        -1.148404
 H        -0.309062         0.481604         0.973644
 H         0.009098         1.305025        -0.444396
 H        -0.509872        -0.404069        -0.691818
 H         2.418117        -1.718498         1.334293
 H         2.429650        -2.058832        -0.532875
 H         5.395641         0.045743         0.246844
 H         5.019217         0.548279        -1.261287
 H         4.915305         2.674009         0.779554
 H         4.035127         2.764618        -0.782330
 H         2.591004         0.478186         2.101345
