19
Iteration:   236charge 0 multiplicity 1
 C         0.023240         0.295823        -0.070855
 C         1.484174        -0.138324         0.066392
 C         2.363626        -1.305947         0.326742
 C         3.315768        -0.147554        -0.145037
 C         4.550322         0.542455        -0.317487
 C         4.211269         2.077542         0.078651
 O         2.958259         2.157497         0.815086
 C         2.610669         0.739901         0.989504
 O         2.205855         0.172608        -1.124109
 H        -0.388551         0.433762         0.977506
 H         0.027538         1.348493        -0.507847
 H        -0.440388        -0.517481        -0.679308
 H         2.419573        -1.673737         1.399261
 H         2.496378        -2.166519        -0.347116
 H         5.365888         0.137056         0.325255
 H         5.084880         0.619506        -1.309917
 H         4.918904         2.598814         0.712735
 H         4.162668         2.779016        -0.770800
 H         2.535363         0.436695         2.044586
