19
Iteration:  4667
 C        -0.054054         0.189952         0.035158
 C         1.507862         0.013297         0.134844
 C         2.397031        -1.328381         0.322054
 C         3.271904        -0.110582        -0.020555
 C         4.646908         0.480682        -0.050899
 C         4.206440         2.013266        -0.112095
 O         2.857413         2.061503         0.504478
 C         2.597338         0.765840         0.984555
 O         2.306357         0.340671        -1.099592
 H        -0.593584        -0.274283         0.900528
 H        -0.322670         1.316092        -0.032330
 H        -0.421834        -0.349957        -0.867323
 H         2.572106        -1.669759         1.336528
 H         2.472744        -2.053991        -0.542720
 H         5.222790         0.258939         0.863372
 H         5.373579         0.429612        -0.841736
 H         4.938780         2.682945         0.320593
 H         3.976382         2.284490        -1.152272
 H         2.798299         0.702060         2.049779
