19
Iteration:  1405charge 0 multiplicity 1
 C        -0.048457         0.204107         0.122138
 C         1.457924        -0.010268         0.041291
 C         2.437618        -1.278244         0.265583
 C         3.306221        -0.052769         0.089018
 C         4.592187         0.506730        -0.352719
 C         4.278722         1.994779         0.055514
 O         2.899355         2.032601         0.647070
 C         2.457306         0.769083         0.942923
 O         2.350887         0.320809        -1.132478
 H        -0.460332        -0.105889         1.066320
 H        -0.325570         1.225595         0.021895
 H        -0.645660        -0.344794        -0.602783
 H         2.400475        -1.812954         1.221635
 H         2.657530        -2.039171        -0.568300
 H         5.597859         0.144334         0.146044
 H         4.762191         0.307129        -1.379269
 H         5.087645         2.290014         0.706786
 H         4.279003         2.610260        -0.788173
 H         2.386021         0.522726         2.009778
