19
Iteration:  3734
 C         0.044870        -0.015129         0.126375
 C         1.458339         0.064981         0.059571
 C         2.303577        -1.220870         0.362412
 C         3.229594        -0.119433        -0.070167
 C         4.652691         0.494702        -0.259107
 C         4.363344         1.980241         0.081542
 O         2.993717         2.265683         0.741734
 C         2.515853         0.832794         0.816805
 O         2.185229         0.195425        -1.246305
 H        -0.324917        -0.451079         1.103108
 H        -0.323993         0.981888         0.086996
 H        -0.335433        -0.589505        -0.658221
 H         2.148008        -1.608966         1.329290
 H         2.237745        -1.841721        -0.412539
 H         5.294000         0.125719         0.575312
 H         5.121878         0.444683        -1.357382
 H         4.923708         2.299630         0.948657
 H         4.582217         2.648963        -0.824378
 H         2.513979         0.461914         1.899175
