19
Iteration:  1253charge 0 multiplicity 1
 C         0.053187         0.192896        -0.034048
 C         1.414915         0.010857         0.061987
 C         2.471983        -1.387853         0.344946
 C         3.242750        -0.094941        -0.024787
 C         4.705663         0.498601        -0.224470
 C         4.204575         2.050494        -0.044943
 O         3.004809         2.112507         0.726125
 C         2.517361         0.791819         0.977101
 O         2.150617         0.279259        -1.128209
 H        -0.406004        -0.169744         0.884748
 H        -0.195599         1.229419         0.191917
 H        -0.546795        -0.042826        -0.906746
 H         2.601696        -1.937052         1.201986
 H         2.508102        -2.001585        -0.568765
 H         5.139980         0.036473         0.679132
 H         5.084002         0.109256        -1.134000
 H         4.952301         2.819845         0.423885
 H         4.048286         2.437871        -1.044875
 H         2.522103         0.559257         2.070511
