19
Iteration:   546
 C         0.022282         0.329782        -0.057293
 C         1.478701        -0.056372         0.177317
 C         2.342277        -1.325534         0.310076
 C         3.282062        -0.172528        -0.087861
 C         4.619249         0.636187        -0.416076
 C         4.102841         2.036271         0.040084
 O         2.976042         2.039891         0.791041
 C         2.524202         0.742352         0.975848
 O         2.387328         0.224238        -1.055734
 H        -0.674825        -0.064861         0.694950
 H         0.016004         1.436204        -0.163830
 H        -0.376083        -0.023938        -1.019819
 H         2.365036        -1.978244         1.215815
 H         2.433216        -2.029913        -0.509546
 H         5.387439         0.272784         0.308435
 H         4.822700         0.502636        -1.453036
 H         4.868518         2.344252         0.701247
 H         4.021749         2.743456        -0.795085
 H         2.389332         0.335931         1.992552
