19
Iteration:  1152charge 0 multiplicity 1
 C        -0.082716         0.062904        -0.035267
 C         1.415388         0.018549         0.120283
 C         2.423662        -1.363850         0.312831
 C         3.254975        -0.086897         0.007399
 C         4.571314         0.508782        -0.323829
 C         4.336285         1.933028        -0.025129
 O         3.109070         2.199457         0.798396
 C         2.446015         0.851968         0.898306
 O         2.225154         0.330403        -1.081830
 H        -0.637984         0.025573         0.938733
 H        -0.433944         0.994375        -0.531289
 H        -0.478743        -0.784861        -0.583351
 H         2.557538        -1.777907         1.277592
 H         2.423832        -2.077070        -0.448686
 H         5.437195         0.120553         0.290144
 H         5.129232         0.373495        -1.365125
 H         5.216615         2.415671         0.523996
 H         4.206138         2.519512        -1.021004
 H         2.375603         0.676704         2.039222
