19
Iteration:  3921
 C         0.052660         0.131792        -0.037713
 C         1.441451         0.056923         0.101072
 C         2.377193        -1.316222         0.306351
 C         3.282536        -0.093316        -0.046890
 C         4.595083         0.502659        -0.197922
 C         4.224930         1.981617        -0.163435
 O         2.962570         2.161674         0.817226
 C         2.500948         0.828599         1.020470
 O         2.297608         0.237719        -1.121765
 H        -0.408328        -0.411703         0.734241
 H        -0.288197         1.160945         0.019249
 H        -0.171403        -0.329927        -0.968734
 H         2.459740        -1.923571         1.188287
 H         2.371686        -1.984413        -0.643801
 H         5.278679         0.315112         0.688947
 H         5.062805         0.188313        -1.238941
 H         4.880270         2.539273         0.365983
 H         3.832030         2.438301        -1.105686
 H         2.644238         0.567905         2.089911
