19
Iteration:  4424charge 0 multiplicity 1
 C        -0.025574         0.081816        -0.186129
 C         1.476188         0.037973         0.170423
 C         2.275689        -1.319442         0.418131
 C         3.298680        -0.136001        -0.024887
 C         4.634710         0.539526        -0.241419
 C         4.080134         2.092519        -0.220443
 O         3.171800         2.107624         0.861852
 C         2.530802         0.811057         1.033645
 O         2.302586         0.243451        -1.105346
 H        -0.551444        -0.097846         0.814701
 H        -0.137263         1.067500        -0.654140
 H        -0.116098        -0.792735        -0.920320
 H         2.231462        -1.734647         1.453039
 H         2.060161        -2.034938        -0.344820
 H         5.372284         0.464387         0.552290
 H         5.078109         0.444045        -1.250992
 H         4.764724         2.881442        -0.008618
 H         3.637810         2.338798        -1.197424
 H         2.354501         0.607757         2.105352
