19
Iteration:  3928charge 0 multiplicity 1
 C        -0.000553         0.190502        -0.059904
 C         1.480379        -0.004938         0.086991
 C         2.429264        -1.272446         0.310589
 C         3.261706        -0.109372        -0.017229
 C         4.605993         0.550585        -0.215556
 C         4.204378         2.011205        -0.121672
 O         2.976166         2.166886         0.836675
 C         2.524276         0.786852         1.012852
 O         2.251638         0.161983        -1.154488
 H        -0.550384        -0.417635         0.763311
 H        -0.233769         1.255749        -0.046695
 H        -0.359862        -0.139229        -1.054105
 H         2.532215        -1.914887         1.293501
 H         2.216809        -1.978767        -0.448379
 H         5.228439         0.321367         0.612613
 H         5.071654         0.322106        -1.190753
 H         5.039647         2.627736         0.367923
 H         4.077898         2.397277        -1.150444
 H         2.787609         0.487016         2.024702
