19
Iteration:  4743charge 0 multiplicity 1
 C        -0.006990         0.046901        -0.178691
 C         1.477272         0.021492         0.107770
 C         2.277223        -1.258316         0.471795
 C         3.211628        -0.067201         0.017118
 C         4.663888         0.614964        -0.321312
 C         4.182147         2.073869        -0.142418
 O         3.116791         2.063122         0.798483
 C         2.537065         0.833667         1.026533
 O         2.308430         0.178078        -1.059084
 H        -0.645134        -0.097588         0.678661
 H        -0.309881         0.967724        -0.731908
 H        -0.245962        -0.744924        -0.858483
 H         2.145057        -1.538685         1.510431
 H         1.999937        -1.999289        -0.298097
 H         5.497093         0.277799         0.319572
 H         5.068678         0.313581        -1.286030
 H         4.980630         2.713533         0.111027
 H         3.686352         2.441414        -1.093938
 H         2.444638         0.672398         2.094326
