19
Iteration:  1577charge 0 multiplicity 1
 C        -0.028754         0.321656         0.023182
 C         1.481761        -0.017085         0.072500
 C         2.364719        -1.348906         0.339222
 C         3.342859        -0.112289         0.009224
 C         4.655526         0.644846        -0.361329
 C         4.167265         2.084714        -0.090634
 O         2.960951         1.987681         0.798348
 C         2.549755         0.658043         1.010595
 O         2.323638         0.248682        -1.130705
 H        -0.473878         0.102234         0.982791
 H        -0.396614         1.304943        -0.198060
 H        -0.604471        -0.307504        -0.694190
 H         2.234353        -1.748608         1.301566
 H         2.319706        -2.100347        -0.497770
 H         5.367452         0.179433         0.253750
 H         4.876044         0.450208        -1.334830
 H         4.935782         2.643163         0.450086
 H         3.800593         2.533571        -1.008301
 H         2.520002         0.435509         2.067804
