19
Iteration:  1156charge 0 multiplicity 1
 C        -0.085638         0.073066        -0.031657
 C         1.354580        -0.007764         0.143993
 C         2.451817        -1.360563         0.271533
 C         3.259189        -0.095711        -0.018441
 C         4.598815         0.473453        -0.342219
 C         4.353833         1.952624        -0.030002
 O         3.108738         2.236996         0.787857
 C         2.429465         0.845265         0.922933
 O         2.239085         0.317950        -1.052977
 H        -0.607579         0.165409         0.940414
 H        -0.424468         1.009544        -0.514379
 H        -0.505271        -0.769277        -0.607534
 H         2.632778        -1.769307         1.307870
 H         2.516311        -2.169717        -0.548256
 H         5.289302         0.156979         0.420496
 H         4.981235         0.428507        -1.289837
 H         5.150551         2.480697         0.537699
 H         4.331246         2.430699        -0.972316
 H         2.249605         0.649977         2.013587
