19
Iteration:  2565
 C        -0.044760         0.232491         0.006645
 C         1.483181        -0.004923         0.198479
 C         2.475702        -1.380311         0.208206
 C         3.310482        -0.096028        -0.037364
 C         4.654131         0.531929        -0.154370
 C         4.131109         2.000636        -0.119148
 O         2.998142         2.093373         0.673304
 C         2.534157         0.776330         1.018591
 O         2.205894         0.286155        -1.108125
 H        -0.475031        -0.213870         0.892196
 H        -0.316754         1.308262         0.125817
 H        -0.443730        -0.201080        -0.881667
 H         2.552304        -1.841273         1.204608
 H         2.216175        -2.079096        -0.518121
 H         5.332717         0.415735         0.694168
 H         5.319059         0.384581        -1.044612
 H         5.002097         2.642361         0.266007
 H         3.830350         2.322271        -1.240107
 H         2.710882         0.518131         2.041586
