19
Iteration:   582
 C         0.051801         0.235854        -0.022523
 C         1.466828        -0.038983         0.065108
 C         2.292408        -1.260770         0.285026
 C         3.300617        -0.107278        -0.079082
 C         4.633801         0.549262        -0.260434
 C         4.078622         2.047394        -0.010438
 O         2.996360         2.010701         0.856465
 C         2.595973         0.700782         0.950891
 O         2.313566         0.299596        -1.155496
 H        -0.330061         0.284016         1.008984
 H        -0.183254         1.241285        -0.404051
 H        -0.452882        -0.561367        -0.573436
 H         2.199476        -1.628071         1.304919
 H         2.422334        -1.896738        -0.553258
 H         5.333503         0.173944         0.538529
 H         5.123750         0.277411        -1.180609
 H         4.844928         2.662102         0.437224
 H         3.810686         2.518959        -0.932617
 H         2.755791         0.495327         2.032486
