19
Iteration:  3332
 C        -0.070179         0.012936        -0.009630
 C         1.485818         0.061551         0.103588
 C         2.347368        -1.333067         0.267172
 C         3.266608        -0.087588         0.045016
 C         4.594927         0.434370        -0.186048
 C         4.222676         2.009069        -0.243448
 O         3.050981         2.110891         0.767789
 C         2.524119         0.851439         1.002322
 O         2.338768         0.389238        -1.057507
 H        -0.547486        -0.096162         0.932731
 H        -0.416618         1.026334        -0.389231
 H        -0.492279        -0.737994        -0.707612
 H         2.445624        -1.925120         1.138255
 H         2.343145        -1.915780        -0.688293
 H         5.262504         0.423507         0.715023
 H         5.020031         0.154451        -1.216649
 H         4.915659         2.674589         0.273158
 H         3.858796         2.391603        -1.264496
 H         2.448293         0.673869         2.136584
