19
Iteration:  1452
 C        -0.133308         0.049122        -0.038418
 C         1.423082         0.033524         0.165488
 C         2.393686        -1.222665         0.321765
 C         3.257595        -0.061744        -0.130727
 C         4.629813         0.586609        -0.245125
 C         4.407006         2.065443         0.019952
 O         3.001982         2.041886         0.718982
 C         2.624794         0.745252         0.922031
 O         2.158820         0.268745        -1.085831
 H        -0.732504        -0.493646         0.738038
 H        -0.638963         1.048637         0.072030
 H        -0.507073        -0.421588        -0.953742
 H         2.616720        -1.672912         1.296286
 H         2.051100        -1.972627        -0.407186
 H         5.358553         0.154346         0.506257
 H         5.205715         0.323860        -1.186974
 H         5.085205         2.703678         0.710078
 H         4.522689         2.641315        -0.988737
 H         2.753828         0.424958         1.938858
