19
Iteration:   983
 C        -0.065136         0.083964        -0.063627
 C         1.387271        -0.012059         0.085258
 C         2.447712        -1.247612         0.343088
 C         3.256257        -0.067514        -0.016368
 C         4.645886         0.440158        -0.249289
 C         4.345232         2.017711        -0.023834
 O         3.015445         2.141290         0.776975
 C         2.592187         0.799529         0.973659
 O         2.130526         0.353022        -1.124340
 H        -0.779763         0.144977         0.727943
 H        -0.259840         0.858198        -0.805148
 H        -0.279208        -0.847134        -0.577019
 H         2.493927        -1.585782         1.330869
 H         2.352792        -2.057966        -0.384705
 H         5.322585        -0.261513         0.328910
 H         5.003252         0.254341        -1.239528
 H         5.175258         2.420665         0.532317
 H         4.154159         2.550818        -0.928283
 H         2.687208         0.504929         2.026060
