19
Iteration:  3895
 C        -0.077509        -0.051720        -0.018202
 C         1.399877         0.016675         0.010816
 C         2.273201        -1.201067         0.236172
 C         3.367763        -0.122861         0.072698
 C         4.674234         0.496732        -0.125751
 C         4.196604         1.937944        -0.192071
 O         3.022901         2.074912         0.645662
 C         2.536222         0.752450         1.051883
 O         2.354622         0.535769        -1.026711
 H        -0.480289        -0.383210         1.028914
 H        -0.436804         0.976057        -0.101682
 H        -0.412501        -0.790013        -0.787792
 H         2.211597        -1.622258         1.381364
 H         2.164166        -1.942430        -0.523127
 H         5.469478         0.316402         0.572214
 H         5.041978         0.243474        -1.134904
 H         4.874022         2.705666         0.355571
 H         3.879839         2.217966        -1.209688
 H         2.731507         0.629389         2.124211
