19
Iteration:   514charge 0 multiplicity 1
 C         0.022877         0.145468        -0.005627
 C         1.473136         0.010039         0.073708
 C         2.400395        -1.355078         0.245114
 C         3.301296        -0.132492        -0.048998
 C         4.648038         0.514842        -0.226921
 C         4.249923         1.947857         0.020804
 O         2.964700         2.088494         0.686828
 C         2.523769         0.766463         1.001379
 O         2.158712         0.432836        -1.104890
 H        -0.523373        -0.425657         0.765128
 H        -0.160385         1.202239         0.267726
 H        -0.238599        -0.145119        -1.028865
 H         2.378804        -1.788391         1.270799
 H         2.520688        -2.153433        -0.454985
 H         5.470326         0.174173         0.470068
 H         5.133505         0.484624        -1.177493
 H         4.908245         2.471661         0.665023
 H         4.196751         2.580874        -0.855891
 H         2.423035         0.546811         2.086142
