19
Iteration:  3778charge 0 multiplicity 1
 C         0.022027         0.246009         0.058678
 C         1.488364        -0.037589         0.158480
 C         2.467978        -1.358559         0.323780
 C         3.339260        -0.110483        -0.010894
 C         4.651433         0.503623        -0.314407
 C         4.212912         1.957541         0.136489
 O         2.829750         2.099472         0.481359
 C         2.532411         0.802212         0.930928
 O         2.227329         0.333654        -1.073098
 H        -0.656419        -0.022699         0.897948
 H        -0.139363         1.286086        -0.041818
 H        -0.384896        -0.244081        -0.781972
 H         2.649497        -1.867598         1.236164
 H         2.353694        -1.979685        -0.505592
 H         5.425522         0.104002         0.378607
 H         4.912116         0.340711        -1.440265
 H         4.860723         2.124709         0.966955
 H         4.355175         2.753413        -0.639973
 H         2.654429         0.594031         2.030057
