19
Iteration:  2345
 C        -0.040420         0.067434        -0.022193
 C         1.476444         0.043138         0.105868
 C         2.316786        -1.334869         0.317471
 C         3.273723        -0.061156         0.016658
 C         4.627641         0.483091        -0.326567
 C         4.138022         2.059208        -0.232790
 O         3.130351         2.124546         0.871265
 C         2.547749         0.801571         1.051637
 O         2.282049         0.312898        -1.097511
 H        -0.565789        -0.537293         0.720503
 H        -0.319547         1.131402        -0.026114
 H        -0.444018        -0.404328        -1.023028
 H         2.212390        -1.836550         1.283363
 H         2.253281        -2.106474        -0.480180
 H         5.279312         0.156187         0.513047
 H         5.159661         0.164582        -1.265652
 H         4.944330         2.797883         0.025179
 H         3.765212         2.304295        -1.235406
 H         2.567360         0.687355         2.231128
