19
Iteration:  3860
 C        -0.014158        -0.017941        -0.011185
 C         1.490011         0.015607         0.173570
 C         2.360841        -1.239162         0.234810
 C         3.211669        -0.078401        -0.110239
 C         4.577646         0.497172        -0.109261
 C         4.211549         1.977662        -0.060879
 O         3.142921         2.186437         0.764821
 C         2.479373         0.846448         0.902154
 O         2.230159         0.296832        -1.105989
 H        -0.506948        -0.062442         0.982604
 H        -0.242920         0.955515        -0.561807
 H        -0.433559        -0.847319        -0.694600
 H         2.614448        -1.766497         1.230717
 H         2.287828        -1.942808        -0.627207
 H         5.226039         0.124641         0.673900
 H         5.067451         0.315355        -1.003283
 H         5.215008         2.520172         0.324521
 H         3.995467         2.480169        -1.006962
 H         2.527771         0.532465         1.951651
