19
Iteration:  2104charge 0 multiplicity 1
 C        -0.068682         0.258501         0.094158
 C         1.437099         0.011624         0.116710
 C         2.516102        -1.353029         0.312307
 C         3.294994        -0.051774        -0.125149
 C         4.719455         0.528815        -0.256349
 C         4.198356         1.993283         0.034105
 O         2.928794         2.160410         0.791600
 C         2.564534         0.720873         0.875892
 O         2.200491         0.203019        -1.224516
 H        -0.471655         0.147228         1.114788
 H        -0.268656         1.298183        -0.199022
 H        -0.633898        -0.593387        -0.375893
 H         2.524487        -1.735213         1.415487
 H         2.347536        -2.204322        -0.450771
 H         5.355037         0.211036         0.590731
 H         5.140126         0.352166        -1.234214
 H         4.988809         2.695777         0.476517
 H         3.878764         2.274682        -0.911914
 H         2.649673         0.491439         1.910500
