19
Iteration:  3712charge 0 multiplicity 1
 C        -0.109663        -0.097415         0.051994
 C         1.393529         0.072178         0.007776
 C         2.338973        -1.206723         0.362462
 C         3.189291        -0.006563        -0.060513
 C         4.608067         0.453131        -0.297469
 C         4.357262         1.996548         0.084909
 O         3.096789         2.132315         0.667797
 C         2.523558         0.881041         0.967980
 O         2.304024         0.288943        -1.157442
 H        -0.259560        -0.330153         1.155014
 H        -0.572595         0.821173        -0.187965
 H        -0.454245        -0.901545        -0.549413
 H         2.523853        -1.545836         1.360065
 H         2.183865        -1.972993        -0.290129
 H         5.256728        -0.005781         0.472005
 H         4.978089         0.418301        -1.390994
 H         5.141522         2.444980         0.714377
 H         4.227455         2.574481        -0.904418
 H         2.474899         0.708839         2.078023
