19
Iteration:  4808
 C         0.024684         0.147032         0.164203
 C         1.474478         0.010806         0.001926
 C         2.234495        -1.370326         0.333608
 C         3.338583        -0.146064        -0.032039
 C         4.675476         0.497411        -0.113125
 C         4.189064         2.126545         0.002411
 O         2.876789         2.123295         0.497204
 C         2.564324         0.835365         0.911705
 O         2.362445         0.253694        -1.154617
 H        -0.245513         0.006351         1.163588
 H        -0.293303         1.152305        -0.070608
 H        -0.540622        -0.540516        -0.365446
 H         2.140563        -1.661869         1.376823
 H         2.122710        -2.182102        -0.368824
 H         5.168756         0.289697         0.921881
 H         5.421243         0.248456        -0.904749
 H         4.923635         2.552725         0.727208
 H         4.254923         2.459916        -1.102912
 H         2.728131         0.487050         1.936781
