19
Iteration:   205charge 0 multiplicity 1
 C        -0.007620         0.302600         0.130803
 C         1.467355        -0.004041         0.026902
 C         2.405157        -1.310188         0.212939
 C         3.323964        -0.187233         0.017122
 C         4.642697         0.543370        -0.213454
 C         4.188091         1.988669        -0.032273
 O         2.884928         2.046102         0.637765
 C         2.472491         0.701754         0.963079
 O         2.395922         0.322648        -1.085520
 H        -0.344246         0.064415         1.167460
 H        -0.422984         1.288866        -0.170253
 H        -0.541425        -0.385264        -0.560991
 H         2.376413        -1.737756         1.237921
 H         2.440154        -1.906282        -0.678259
 H         5.465360         0.281917         0.468320
 H         5.106778         0.474525        -1.276636
 H         4.809260         2.431973         0.700500
 H         4.009689         2.556647        -0.970844
 H         2.227812         0.658279         2.017667
