19
Iteration:  3352charge 0 multiplicity 1
 C         0.034952        -0.029468        -0.034307
 C         1.506281         0.075580         0.111319
 C         2.191804        -1.219110         0.250672
 C         3.334108        -0.032674         0.064503
 C         4.702465         0.471965        -0.189453
 C         4.188289         1.904131        -0.180701
 O         3.020515         2.127297         0.755040
 C         2.503676         0.825493         1.003337
 O         2.321242         0.401337        -1.061488
 H        -0.319316        -0.201030         0.932971
 H        -0.634292         0.826151        -0.328410
 H        -0.268684        -0.946863        -0.583671
 H         2.020085        -1.799921         1.131106
 H         2.122514        -2.051837        -0.552426
 H         5.450764         0.133422         0.508968
 H         4.877307         0.442424        -1.332237
 H         4.921201         2.582638        -0.069784
 H         3.842999         2.099417        -1.218175
 H         2.511605         0.569900         2.153786
