19
Iteration:   429
 C        -0.100377         0.130090        -0.080320
 C         1.454135        -0.014914         0.179957
 C         2.353184        -1.306506         0.225345
 C         3.297237        -0.143978        -0.112271
 C         4.648781         0.502688        -0.257364
 C         4.174181         2.020557         0.030093
 O         3.022040         2.130927         0.828738
 C         2.615036         0.722831         0.914953
 O         2.283647         0.367705        -1.071750
 H        -0.611001         0.220044         0.893434
 H        -0.180284         1.088100        -0.652686
 H        -0.613354        -0.673407        -0.607829
 H         2.541479        -1.899491         1.178909
 H         2.152853        -1.905751        -0.635341
 H         5.346134         0.287791         0.607005
 H         5.045542         0.375256        -1.257871
 H         4.990521         2.646626         0.579724
 H         3.992803         2.410115        -0.983278
 H         2.663187         0.595911         2.002410
