19
Iteration:  2317
 C        -0.052693         0.097682         0.036964
 C         1.463005         0.100056         0.066745
 C         2.307485        -1.252040         0.350770
 C         3.293886        -0.075211         0.005381
 C         4.645213         0.515450        -0.336747
 C         4.120535         2.077694        -0.124039
 O         3.096478         2.016437         0.848372
 C         2.534177         0.774119         0.944664
 O         2.351349         0.276968        -1.141615
 H        -0.409691        -0.375466         0.974030
 H        -0.454035         1.121984        -0.089115
 H        -0.429710        -0.594127        -0.653167
 H         2.163469        -1.624671         1.439190
 H         2.320284        -2.103569        -0.277573
 H         5.363173         0.099914         0.395343
 H         4.899716         0.325231        -1.393699
 H         4.902339         2.796032         0.198783
 H         3.755437         2.285278        -1.154276
 H         2.516539         0.575881         1.965793
