19
Iteration:   684charge 0 multiplicity 1
 C         0.027515         0.212905        -0.013720
 C         1.481908        -0.101387         0.025132
 C         2.356693        -1.323401         0.342705
 C         3.211133        -0.024663        -0.012978
 C         4.645117         0.566543        -0.321287
 C         4.372528         2.045207         0.061615
 O         3.003499         2.085201         0.805732
 C         2.423153         0.792734         0.975083
 O         2.241239         0.238410        -1.169379
 H        -0.536219        -0.451323         0.625904
 H        -0.220477         1.260805        -0.013790
 H        -0.346634        -0.048841        -1.028846
 H         2.417954        -1.680318         1.334665
 H         2.346940        -2.135230        -0.392967
 H         5.393276        -0.021160         0.134272
 H         4.683069         0.328367        -1.440662
 H         5.072916         2.573770         0.743582
 H         4.075923         2.630085        -0.824503
 H         2.504526         0.402753         2.040900
