19
Iteration:  1375charge 0 multiplicity 1
 C         0.070167         0.214406         0.058425
 C         1.513650         0.003479         0.168538
 C         2.309672        -1.351299         0.250093
 C         3.256473        -0.095432        -0.112332
 C         4.637870         0.541109        -0.263399
 C         4.288536         2.074295         0.019234
 O         2.851945         2.083223         0.672554
 C         2.548284         0.707153         0.927420
 O         2.280982         0.284172        -1.073573
 H        -0.367118         0.247979         1.068573
 H        -0.173467         1.146976        -0.445284
 H        -0.561712        -0.550480        -0.423572
 H         2.425920        -1.886190         1.147716
 H         2.278977        -2.067096        -0.568742
 H         5.283466         0.212895         0.582360
 H         5.124049         0.465380        -1.220755
 H         5.076273         2.522969         0.742413
 H         4.114081         2.482839        -0.963840
 H         2.695312         0.473131         1.955023
