19
Iteration:  3009charge 0 multiplicity 1
 C        -0.061069         0.021451         0.011438
 C         1.429719         0.043015         0.141803
 C         2.375580        -1.385115         0.310934
 C         3.184283        -0.042708        -0.066393
 C         4.611595         0.482243        -0.295893
 C         4.352532         2.001313        -0.008065
 O         3.014401         2.158359         0.671045
 C         2.605953         0.780831         1.010733
 O         2.205089         0.424307        -1.119436
 H        -0.563870        -0.085253         0.989009
 H        -0.448605         0.864449        -0.603940
 H        -0.260085        -0.920528        -0.500533
 H         2.489054        -1.661430         1.368304
 H         2.262607        -2.291974        -0.363472
 H         5.383487         0.092247         0.539835
 H         5.133814         0.335295        -1.308074
 H         5.020468         2.499479         0.724982
 H         4.252848         2.492273        -0.961894
 H         2.754135         0.602763         2.067457
