19
Iteration:    42
 C        -0.044263         0.261061         0.235392
 C         1.487447         0.038530         0.025992
 C         2.373286        -1.219600         0.196647
 C         3.328333        -0.135516        -0.070796
 C         4.760964         0.513606        -0.063383
 C         4.116492         2.014532        -0.016378
 O         2.923977         2.043292         0.700747
 C         2.468371         0.762512         0.878282
 O         2.296491         0.217767        -1.233037
 H        -0.164699         0.240236         1.299591
 H        -0.442950         1.199829        -0.152354
 H        -0.503503        -0.579734        -0.193997
 H         2.459689        -1.756573         1.118190
 H         2.344638        -1.830955        -0.731340
 H         5.332752         0.179246         0.736648
 H         5.459237         0.341048        -0.960038
 H         4.877592         2.671990         0.423134
 H         4.047018         2.145068        -1.156937
 H         2.693435         0.441049         1.932938
