19
Iteration:  2707
 C        -0.050745        -0.006381         0.076458
 C         1.489704         0.019009         0.074487
 C         2.308427        -1.272300         0.250085
 C         3.271389        -0.099833        -0.014348
 C         4.626707         0.470039        -0.271349
 C         4.304846         2.000647         0.048548
 O         2.954200         2.141579         0.562064
 C         2.526865         0.810218         0.962193
 O         2.327678         0.380883        -1.072352
 H        -0.359836        -0.372498         1.079385
 H        -0.532937         1.000749         0.071207
 H        -0.537376        -0.626275        -0.664655
 H         2.469525        -1.709386         1.284965
 H         2.185872        -2.148538        -0.486289
 H         5.477471         0.345072         0.417398
 H         5.009176         0.286715        -1.263863
 H         4.885956         2.228316         0.853376
 H         4.250966         2.803736        -0.762948
 H         2.439770         0.832348         2.149193
