19
Iteration:   126charge 0 multiplicity 1
 C        -0.010600         0.015576        -0.095369
 C         1.487960        -0.050935         0.053875
 C         2.301726        -1.215357         0.386573
 C         3.228913        -0.056291         0.008575
 C         4.547338         0.528136        -0.405731
 C         4.265759         1.988613        -0.098147
 O         3.136025         2.068256         0.904546
 C         2.499679         0.849672         1.048249
 O         2.321655         0.311825        -1.136989
 H        -0.804131        -0.487462         0.547583
 H        -0.212277         1.144144        -0.049252
 H        -0.448439        -0.318868        -1.096018
 H         2.329755        -1.511310         1.466604
 H         2.211271        -2.121856        -0.298741
 H         5.293941         0.116479         0.392698
 H         4.774430         0.452700        -1.527433
 H         5.012192         2.677674         0.328636
 H         3.840464         2.592540        -0.907298
 H         2.364689         0.711681         2.128113
