19
Iteration:  4437charge 0 multiplicity 1
 C         0.062739         0.115551        -0.110151
 C         1.509207         0.040711         0.058159
 C         2.310593        -1.232825         0.416724
 C         3.287754        -0.098136         0.067613
 C         4.607956         0.569447        -0.294666
 C         4.115298         1.990783        -0.243373
 O         2.985969         2.026747         0.780440
 C         2.527618         0.742140         1.034690
 O         2.386209         0.340462        -1.032617
 H        -0.581379        -0.077181         0.809371
 H        -0.349928         1.063806        -0.480981
 H        -0.347372        -0.600568        -0.889002
 H         2.372968        -1.625256         1.414050
 H         2.106441        -2.071451        -0.311065
 H         5.258967         0.318107         0.494319
 H         4.984624         0.153632        -1.146640
 H         4.914610         2.684449         0.087183
 H         3.635695         2.274267        -1.185133
 H         2.528194         0.526888         2.137015
