19
Iteration:  1802charge 0 multiplicity 1
 C        -0.065143         0.098738         0.107581
 C         1.440208        -0.083828         0.140510
 C         2.368335        -1.269901         0.185875
 C         3.262157        -0.058657        -0.019925
 C         4.624945         0.462643        -0.173135
 C         4.248560         1.968753        -0.156685
 O         3.053778         2.147292         0.840874
 C         2.527382         0.786211         0.930416
 O         2.267230         0.397230        -1.175351
 H        -0.603262        -0.473165         0.865576
 H        -0.391304         1.134238         0.128790
 H        -0.471951        -0.376044        -0.847612
 H         2.625776        -1.759324         1.197081
 H         2.355799        -1.978616        -0.677313
 H         5.350044         0.339420         0.690935
 H         5.087113         0.236761        -1.146156
 H         4.983887         2.721079         0.118938
 H         3.830495         2.220931        -1.124158
 H         2.743890         0.432622         2.008885
