19
Iteration:   668charge 0 multiplicity 1
 C        -0.083757         0.076427        -0.044966
 C         1.438568         0.064126         0.056217
 C         2.315550        -1.199645         0.315509
 C         3.321645        -0.135185        -0.045450
 C         4.592457         0.512911        -0.287499
 C         4.244266         2.001334         0.035949
 O         2.997331         2.068882         0.783952
 C         2.609208         0.743766         0.979261
 O         2.312164         0.311287        -1.166824
 H        -0.514512        -0.362358         0.898705
 H        -0.332628         1.195439         0.048391
 H        -0.471534        -0.342216        -0.989673
 H         2.353473        -1.665118         1.378711
 H         2.166567        -2.016988        -0.395318
 H         5.410403         0.231862         0.477378
 H         4.962092         0.518000        -1.298759
 H         5.039651         2.405127         0.656819
 H         4.200704         2.626895        -0.852093
 H         2.503730         0.612208         2.125927
