19
Iteration:  3451
 C         0.015426         0.227444         0.073458
 C         1.450325        -0.087926         0.141142
 C         2.285676        -1.354497         0.343327
 C         3.336631        -0.123167        -0.041949
 C         4.750801         0.476199        -0.335032
 C         4.264009         2.101831         0.055889
 O         2.782129         2.070558         0.522042
 C         2.554484         0.757938         0.989545
 O         2.377650         0.337264        -1.088132
 H        -0.459942         0.051203         1.031360
 H        -0.126921         1.318156        -0.139946
 H        -0.598304        -0.331319        -0.644938
 H         2.115907        -1.600425         1.435527
 H         2.129245        -2.299825        -0.276596
 H         5.550284         0.057289         0.260875
 H         4.855226         0.367886        -1.456833
 H         4.798743         2.460737         0.863981
 H         4.334054         2.812530        -0.813586
 H         2.481606         0.713077         2.108448
