19
Iteration:  2075charge 0 multiplicity 1
 C         0.100235         0.246366         0.062078
 C         1.495295        -0.078125         0.149117
 C         2.335545        -1.400123         0.238673
 C         3.295826        -0.110148        -0.077493
 C         4.568882         0.605632        -0.219358
 C         4.132570         2.071665        -0.158902
 O         3.003749         2.079237         0.761685
 C         2.570530         0.633072         0.998459
 O         2.281543         0.326901        -1.111318
 H        -0.414315         0.334326         1.001349
 H        -0.056087         1.217366        -0.368934
 H        -0.487160        -0.465451        -0.593034
 H         2.360118        -1.704538         1.229160
 H         2.173346        -2.228885        -0.498967
 H         4.959100         0.599407         0.812544
 H         5.174576         0.278000        -1.099281
 H         4.965694         2.799370         0.179836
 H         3.738505         2.517481        -1.113875
 H         2.562139         0.580296         2.169655
