19
Iteration:  2640charge 0 multiplicity 1
 C        -0.015814         0.131416        -0.038244
 C         1.418125        -0.123499         0.061216
 C         2.406551        -1.273565         0.332007
 C         3.224604        -0.099370        -0.126248
 C         4.603959         0.596731        -0.242752
 C         4.205340         2.072310        -0.046285
 O         3.090069         2.120093         0.845940
 C         2.601584         0.818332         1.011792
 O         2.188689         0.193887        -1.158418
 H        -0.406761         0.297713         0.904990
 H         0.008975         1.146937        -0.489283
 H        -0.450723        -0.545539        -0.785838
 H         2.679388        -1.463127         1.461693
 H         2.292844        -2.124430        -0.286742
 H         5.177667         0.251165         0.588325
 H         5.079140         0.468964        -1.226348
 H         5.017800         2.545487         0.317401
 H         3.860299         2.431821        -1.057184
 H         2.470835         0.545964         2.191268
