19
Iteration:  4285charge 0 multiplicity 1
 C         0.011286         0.182146         0.096686
 C         1.479266        -0.004700         0.073661
 C         2.309786        -1.334699         0.449080
 C         3.223383        -0.085887        -0.185221
 C         4.647806         0.586328        -0.282197
 C         4.340457         2.075848         0.182928
 O         2.914362         2.159738         0.659637
 C         2.530251         0.857512         0.822749
 O         2.263881         0.051756        -1.224766
 H        -0.357614        -0.305864         1.030342
 H        -0.274106         1.190581         0.177895
 H        -0.543699        -0.306980        -0.684480
 H         2.596736        -1.586052         1.528422
 H         2.055441        -2.152401        -0.258179
 H         5.330762         0.115559         0.508707
 H         5.164750         0.588810        -1.203509
 H         5.119725         2.555559         0.887356
 H         4.465243         2.812931        -0.697238
 H         2.601325         0.432231         1.882275
