19
Iteration:   141charge 0 multiplicity 1
 C        -0.130259         0.086020        -0.076515
 C         1.363694        -0.063401        -0.006220
 C         2.448158        -1.278212         0.351277
 C         3.224464        -0.016882         0.011911
 C         4.647709         0.498980        -0.217306
 C         4.275493         2.004269        -0.135115
 O         3.127453         2.131616         0.912709
 C         2.518103         0.816751         0.972590
 O         2.225569         0.328388        -1.136944
 H        -0.441169        -0.549882         0.715862
 H        -0.448657         1.094310         0.115564
 H        -0.418272        -0.280512        -1.044810
 H         2.453974        -1.657147         1.371617
 H         2.537152        -2.074275        -0.343683
 H         5.442464         0.142976         0.387700
 H         4.912553         0.205860        -1.295564
 H         5.164260         2.579997         0.121615
 H         3.951676         2.270025        -1.197257
 H         2.552377         0.397383         1.992611
