19
Iteration:  3562
 C        -0.095404         0.114282        -0.050996
 C         1.435642        -0.012942         0.078966
 C         2.368852        -1.345903         0.303561
 C         3.244939        -0.056541         0.111729
 C         4.658226         0.498049        -0.295566
 C         4.298892         2.034322        -0.098361
 O         3.007435         2.048827         0.593017
 C         2.568008         0.801340         1.065809
 O         2.246088         0.387323        -1.032383
 H        -0.520122        -0.323314         0.943229
 H        -0.325057         1.145809        -0.199615
 H        -0.416695        -0.554086        -0.837156
 H         2.586131        -1.646888         1.432899
 H         2.401409        -2.138697        -0.413731
 H         5.352548         0.129353         0.511097
 H         4.919568         0.062982        -1.232074
 H         4.949407         2.727104         0.392069
 H         4.122569         2.515474        -1.080678
 H         2.645522         0.767403         2.166251
