19
Iteration:  1757charge 0 multiplicity 1
 C         0.029605         0.236023         0.058590
 C         1.484246        -0.044312         0.097855
 C         2.306748        -1.296912         0.325275
 C         3.312544        -0.103061        -0.076205
 C         4.675567         0.555579        -0.296434
 C         4.102952         2.101965        -0.090546
 O         2.962236         2.009957         0.803573
 C         2.614490         0.638893         0.979127
 O         2.315032         0.350951        -1.131243
 H        -0.646602         0.013796         0.937740
 H        -0.015070         1.320484        -0.266818
 H        -0.471769        -0.370363        -0.761890
 H         1.993900        -1.531966         1.451658
 H         2.193259        -2.157085        -0.333163
 H         5.478712         0.046014         0.355719
 H         4.903691         0.309238        -1.401809
 H         4.843345         2.886299         0.330948
 H         3.767569         2.501263        -1.050810
 H         2.731286         0.199663         2.047635
