19
Iteration:  4784charge 0 multiplicity 1
 C        -0.012239         0.149983         0.024924
 C         1.427377         0.011759         0.120370
 C         2.450862        -1.264772         0.337058
 C         3.299902        -0.048968        -0.044945
 C         4.688368         0.501026        -0.106695
 C         4.232524         1.943640        -0.084490
 O         2.889957         2.058877         0.553957
 C         2.432061         0.834498         0.976014
 O         2.307488         0.305195        -1.103462
 H        -0.380227         0.200763         1.037064
 H        -0.211731         1.106616        -0.351617
 H        -0.539739        -0.649408        -0.467252
 H         2.804717        -1.617270         1.282697
 H         2.260460        -2.066292        -0.439137
 H         5.363787         0.146016         0.780514
 H         5.170440         0.315013        -1.093557
 H         4.944194         2.583485         0.558406
 H         4.204260         2.177831        -1.163496
 H         2.516185         0.505756         2.010781
