19
Iteration:  4974
 C         0.006059         0.256897         0.091808
 C         1.476645        -0.072486         0.056657
 C         2.314062        -1.364515         0.286150
 C         3.295411        -0.045780        -0.001239
 C         4.669038         0.602439        -0.124843
 C         4.179700         2.055326        -0.108043
 O         2.920124         2.065025         0.574103
 C         2.528287         0.709746         0.968432
 O         2.356528         0.205291        -1.077566
 H        -0.478787         0.133293         1.026357
 H        -0.032958         1.274030        -0.236901
 H        -0.496055        -0.352816        -0.617816
 H         2.322381        -1.748495         1.305252
 H         2.253123        -1.984917        -0.625700
 H         5.268187         0.503468         0.826711
 H         5.360310         0.306876        -0.988859
 H         4.864298         2.694783         0.490390
 H         3.886204         2.461890        -1.180241
 H         2.520037         0.730272         2.059663
