19
Iteration:  2344
 C        -0.048580         0.061727        -0.020598
 C         1.477794         0.046489         0.102425
 C         2.314899        -1.332037         0.323723
 C         3.270768        -0.062969         0.015635
 C         4.632281         0.487660        -0.322770
 C         4.133159         2.056226        -0.235654
 O         3.133851         2.127276         0.875088
 C         2.543003         0.801752         1.057829
 O         2.294452         0.311036        -1.102477
 H        -0.580848        -0.530560         0.724493
 H        -0.288454         1.116157        -0.017533
 H        -0.452716        -0.397466        -0.993906
 H         2.229840        -1.829637         1.241136
 H         2.225806        -2.113030        -0.487156
 H         5.278450         0.143354         0.507359
 H         5.117558         0.200093        -1.271312
 H         4.984544         2.739220         0.014082
 H         3.732233         2.337841        -1.270677
 H         2.551409         0.672177         2.189315
