19
Iteration:   369
 C        -0.008589         0.344893         0.004270
 C         1.449200        -0.009939         0.065828
 C         2.434013        -1.349429         0.301599
 C         3.329739        -0.089930        -0.029484
 C         4.660599         0.509357        -0.355406
 C         4.205736         2.070068         0.025271
 O         2.856484         2.044515         0.854215
 C         2.513214         0.717074         1.001484
 O         2.349149         0.237189        -1.186062
 H        -0.473879        -0.054011         0.926629
 H        -0.243956         1.404800         0.122675
 H        -0.516986         0.021107        -0.944422
 H         2.511794        -1.778934         1.284248
 H         2.349714        -2.095756        -0.518000
 H         5.436273         0.089876         0.259840
 H         5.078509         0.255864        -1.372378
 H         4.892196         2.727590         0.429247
 H         3.915237         2.340834        -0.998665
 H         2.278262         0.324883         1.996858
