19
Iteration:  2630
 C         0.023762         0.196889        -0.029455
 C         1.479150        -0.068905         0.079583
 C         2.340350        -1.286847         0.358980
 C         3.284491        -0.040377        -0.056268
 C         4.637295         0.576755        -0.269443
 C         4.132000         2.048545        -0.121983
 O         3.051927         2.078522         0.870805
 C         2.528044         0.785795         0.973574
 O         2.235733         0.182004        -1.161963
 H        -0.470495         0.115979         0.896769
 H        -0.135294         1.190083        -0.486732
 H        -0.516579        -0.525539        -0.596846
 H         2.530921        -1.750165         1.366921
 H         2.375802        -2.050182        -0.384107
 H         5.316536         0.263275         0.513832
 H         5.195124         0.388436        -1.188636
 H         4.774727         2.646437         0.407001
 H         3.937213         2.642154        -1.077143
 H         2.809702         0.416460         2.025395
