19
Iteration:  2319
 C        -0.055340         0.103992         0.032499
 C         1.450645         0.087641         0.075827
 C         2.305472        -1.234310         0.348337
 C         3.294020        -0.080733         0.010000
 C         4.616731         0.522834        -0.336489
 C         4.121780         2.059744        -0.114081
 O         3.107100         2.015651         0.853814
 C         2.539605         0.779139         0.926742
 O         2.364445         0.276515        -1.131989
 H        -0.387568        -0.439465         0.935263
 H        -0.469871         1.102562        -0.087636
 H        -0.439920        -0.601358        -0.630951
 H         2.204329        -1.598422         1.344820
 H         2.323175        -2.123048        -0.294845
 H         5.418138         0.183066         0.371941
 H         4.878461         0.319172        -1.352063
 H         4.884267         2.818226         0.180800
 H         3.752268         2.236365        -1.233012
 H         2.548850         0.622444         1.942532
