19
Iteration:  4392charge 0 multiplicity 1
 C        -0.099587         0.038585        -0.203432
 C         1.424862        -0.061303         0.080451
 C         2.435121        -1.224608         0.472495
 C         3.200348        -0.006007        -0.045067
 C         4.596922         0.517675        -0.252901
 C         4.224714         2.088690        -0.180543
 O         3.208333         2.111577         0.909507
 C         2.548785         0.843762         1.061436
 O         2.219581         0.168729        -1.192309
 H        -0.618331         0.090419         0.857327
 H        -0.377261         1.030100        -0.651560
 H        -0.608666        -0.777208        -0.873547
 H         2.445344        -1.563256         1.535619
 H         2.426755        -2.090846        -0.138567
 H         5.245689         0.237440         0.533920
 H         5.049421         0.399989        -1.200732
 H         4.944869         2.769549         0.258104
 H         3.764383         2.475317        -1.101022
 H         2.438372         0.630941         2.154650
