19
Iteration:  2397
 C         0.018741         0.155555         0.126689
 C         1.467372        -0.011471         0.073092
 C         2.343208        -1.287514         0.284774
 C         3.319337        -0.088276        -0.013236
 C         4.621701         0.470922        -0.211904
 C         4.199077         2.063636        -0.057258
 O         2.927945         2.101838         0.656295
 C         2.541977         0.743570         0.918541
 O         2.283693         0.298634        -1.095229
 H        -0.329589        -0.175023         1.128303
 H        -0.236265         1.191162         0.060232
 H        -0.531894        -0.307735        -0.675292
 H         2.554204        -1.735669         1.239052
 H         2.227479        -2.029191        -0.592884
 H         5.505138         0.129969         0.345923
 H         4.975051         0.324390        -1.216506
 H         5.105459         2.451972         0.484683
 H         4.078796         2.679613        -1.092191
 H         2.647372         0.557380         1.927897
