19
Iteration:  3925charge 0 multiplicity 1
 C         0.030684         0.165518        -0.044842
 C         1.452067         0.025243         0.088911
 C         2.412448        -1.286699         0.312379
 C         3.273811        -0.106644        -0.033607
 C         4.604691         0.530634        -0.215682
 C         4.212740         1.989828        -0.148848
 O         2.967419         2.170822         0.835501
 C         2.508600         0.803082         1.022255
 O         2.268850         0.186937        -1.144320
 H        -0.476280        -0.424401         0.744934
 H        -0.257260         1.252968        -0.030623
 H        -0.295227        -0.226002        -1.073496
 H         2.496602        -1.935606         1.183478
 H         2.286319        -1.988294        -0.511431
 H         5.238796         0.351318         0.660537
 H         5.001710         0.290087        -1.130224
 H         5.021414         2.623954         0.424382
 H         3.997235         2.398714        -1.127670
 H         2.786551         0.533894         2.073797
