19
Iteration:  1451
 C        -0.137880         0.049658        -0.031425
 C         1.425958         0.032570         0.168280
 C         2.390024        -1.211862         0.333454
 C         3.253418        -0.064799        -0.135957
 C         4.629932         0.585219        -0.246757
 C         4.402769         2.069794         0.017992
 O         3.003381         2.043622         0.716510
 C         2.627578         0.735169         0.916553
 O         2.163260         0.267749        -1.088068
 H        -0.740107        -0.505283         0.716201
 H        -0.609354         1.052520         0.051017
 H        -0.479316        -0.419002        -0.962713
 H         2.590295        -1.691742         1.287899
 H         2.053324        -1.969142        -0.449229
 H         5.372037         0.146320         0.541493
 H         5.203369         0.345277        -1.177833
 H         5.070133         2.666035         0.717702
 H         4.500576         2.663963        -0.943892
 H         2.791178         0.432865         1.933531
