19
Iteration:  2236charge 0 multiplicity 1
 C         0.046439         0.132219         0.184427
 C         1.475916        -0.051405         0.101106
 C         2.291404        -1.286624         0.331298
 C         3.258535        -0.074784        -0.060640
 C         4.568101         0.514259        -0.302883
 C         4.294882         2.084700         0.115614
 O         2.906110         2.086751         0.569817
 C         2.520797         0.779964         0.961443
 O         2.348543         0.275834        -1.226074
 H        -0.037876         0.144973         1.271722
 H        -0.290697         1.116736        -0.115759
 H        -0.560497        -0.619870        -0.458783
 H         2.584820        -1.691578         1.347475
 H         2.019595        -2.006506        -0.561793
 H         5.376679         0.035887         0.296811
 H         4.813664         0.417264        -1.377977
 H         5.036681         2.384270         0.834058
 H         4.417394         2.649087        -0.732613
 H         2.612624         0.639456         2.057315
