19
Iteration:  4286
 C         0.019068         0.183097         0.101334
 C         1.478413        -0.002785         0.071943
 C         2.314914        -1.330440         0.460187
 C         3.220887        -0.084978        -0.193982
 C         4.635752         0.588004        -0.274356
 C         4.343293         2.069568         0.182840
 O         2.914854         2.158253         0.657530
 C         2.526367         0.852100         0.821725
 O         2.263770         0.051357        -1.231820
 H        -0.353640        -0.297105         1.005706
 H        -0.275892         1.184367         0.187733
 H        -0.558784        -0.272135        -0.651141
 H         2.629037        -1.588996         1.494648
 H         2.089732        -2.135313        -0.297989
 H         5.332271         0.123523         0.544459
 H         5.194516         0.557092        -1.214695
 H         5.078469         2.542597         0.912436
 H         4.429571         2.798664        -0.680846
 H         2.629410         0.485188         1.873640
