19
Iteration:  1684
 C        -0.038378         0.061071         0.136455
 C         1.455615         0.089630         0.092578
 C         2.245656        -1.296212         0.316501
 C         3.260328        -0.127699        -0.080839
 C         4.651204         0.535917        -0.293298
 C         4.231794         2.074519        -0.042568
 O         3.012790         2.035377         0.775670
 C         2.542090         0.748082         0.917987
 O         2.357564         0.388726        -1.176880
 H        -0.428893        -0.299989         1.053269
 H        -0.445923         0.984851        -0.188049
 H        -0.260214        -0.726254        -0.587520
 H         2.368846        -1.580300         1.317072
 H         2.267567        -2.175559        -0.299733
 H         5.237970         0.093682         0.482204
 H         5.066095         0.292066        -1.231622
 H         5.028015         2.649634         0.437562
 H         4.080404         2.595041        -1.025004
 H         2.506068         0.415206         1.932618
