19
Iteration:  4260charge 0 multiplicity 1
 C        -0.050508         0.067092        -0.047082
 C         1.447081        -0.006601         0.085228
 C         2.278940        -1.252221         0.436867
 C         3.298573        -0.109271         0.056507
 C         4.616327         0.583469        -0.382388
 C         4.295993         2.021448         0.079560
 O         2.996585         2.087124         0.624894
 C         2.562860         0.824681         0.954859
 O         2.277953         0.240183        -1.114268
 H        -0.593954        -0.142588         0.931345
 H        -0.356467         1.132984        -0.317757
 H        -0.518822        -0.682453        -0.786360
 H         2.470399        -1.765164         1.447698
 H         2.363264        -1.893967        -0.421132
 H         5.521818         0.377027         0.062637
 H         4.668045         0.438187        -1.449966
 H         5.124751         2.430864         0.781303
 H         4.457373         2.841544        -0.701724
 H         2.601441         0.532594         2.114889
