19
Iteration:   870
 C         0.029933         0.308768        -0.051105
 C         1.487671         0.000004         0.136291
 C         2.324654        -1.352536         0.269186
 C         3.303220        -0.143422         0.005735
 C         4.676494         0.540405        -0.288227
 C         4.134847         2.048248        -0.140573
 O         2.924191         2.029894         0.795937
 C         2.560483         0.709573         1.039471
 O         2.334104         0.309109        -1.080755
 H        -0.635311        -0.282406         0.621467
 H        -0.090346         1.398438        -0.159663
 H        -0.062948        -0.092661        -1.091969
 H         2.228208        -1.689655         1.344949
 H         2.142150        -2.154439        -0.388287
 H         5.411094         0.212826         0.475196
 H         5.242837         0.377025        -1.272291
 H         4.775652         2.754190         0.362517
 H         3.642976         2.379333        -1.025341
 H         2.530637         0.389951         2.082764
