19
Iteration:   125charge 0 multiplicity 1
 C        -0.004487         0.017101        -0.101451
 C         1.491195        -0.040398         0.060207
 C         2.294107        -1.217276         0.385085
 C         3.229724        -0.056926         0.005741
 C         4.549729         0.528096        -0.416221
 C         4.249458         1.993884        -0.091086
 O         3.137112         2.068312         0.902559
 C         2.507525         0.845262         1.045123
 O         2.324089         0.307208        -1.129787
 H        -0.789273        -0.489802         0.551261
 H        -0.216893         1.132869        -0.051817
 H        -0.442789        -0.339146        -1.098416
 H         2.331709        -1.514338         1.461875
 H         2.187573        -2.126961        -0.286757
 H         5.285587         0.121368         0.386151
 H         4.744102         0.422733        -1.502226
 H         5.011363         2.669392         0.345325
 H         3.884820         2.603000        -0.901898
 H         2.351773         0.725921         2.125258
