19
Iteration:  4120charge 0 multiplicity 1
 C         0.065218         0.263453        -0.080159
 C         1.503939        -0.054570         0.291676
 C         2.338255        -1.396638         0.252588
 C         3.327782        -0.071337        -0.057231
 C         4.628591         0.570409        -0.242266
 C         4.197917         2.011065        -0.084451
 O         2.855368         2.049981         0.590719
 C         2.627609         0.731652         1.157987
 O         2.239343         0.305187        -1.066789
 H        -0.742060        -0.106259         0.518612
 H        -0.053899         1.293859        -0.248712
 H        -0.032100        -0.197563        -1.048232
 H         2.480653        -1.919434         1.271678
 H         2.061483        -2.014712        -0.571691
 H         5.519591         0.273270         0.525145
 H         5.032477         0.345715        -1.239595
 H         4.683119         2.823840         0.378117
 H         3.927340         2.591089        -0.981186
 H         2.855306         0.625475         2.195047
