19
Iteration:   237charge 0 multiplicity 1
 C         0.022153         0.294875        -0.078342
 C         1.484047        -0.127818         0.071696
 C         2.358397        -1.308033         0.327182
 C         3.322850        -0.146374        -0.151900
 C         4.555304         0.555910        -0.319118
 C         4.208873         2.074124         0.082320
 O         2.963757         2.153007         0.818766
 C         2.611478         0.736643         0.985361
 O         2.196542         0.170462        -1.118499
 H        -0.417517         0.402535         0.957392
 H         0.035240         1.329016        -0.527762
 H        -0.433932        -0.528892        -0.665296
 H         2.425670        -1.654409         1.400680
 H         2.494476        -2.187899        -0.285181
 H         5.339470         0.170415         0.355119
 H         5.089255         0.629484        -1.337122
 H         4.934895         2.557366         0.693655
 H         4.194773         2.770621        -0.783143
 H         2.532396         0.428822         2.016195
