19
Iteration:  1708
 C        -0.018571         0.210183        -0.001473
 C         1.408817        -0.127656         0.081475
 C         2.421002        -1.306833         0.251079
 C         3.256633        -0.105048         0.017197
 C         4.644501         0.526056        -0.325141
 C         4.210571         2.051921        -0.026313
 O         2.993411         2.081829         0.763058
 C         2.594806         0.794206         1.036854
 O         2.227585         0.313060        -1.093885
 H        -0.347097         0.121250         1.017161
 H        -0.059932         1.231639        -0.378440
 H        -0.679617        -0.488538        -0.538074
 H         2.638951        -1.854292         1.103759
 H         2.377560        -1.957078        -0.660631
 H         5.342155         0.057724         0.298368
 H         4.903666         0.323897        -1.304184
 H         5.052560         2.684487         0.367233
 H         3.923080         2.554699        -1.025514
 H         2.620255         0.544494         2.050447
