19
Iteration:  2653
 C        -0.097661         0.084791        -0.077086
 C         1.455794        -0.059036         0.103174
 C         2.490447        -1.324503         0.394687
 C         3.244435        -0.041626        -0.113523
 C         4.537816         0.540289        -0.261601
 C         4.330560         2.059029        -0.031973
 O         3.085116         2.155604         0.834471
 C         2.560421         0.789073         0.923264
 O         2.169398         0.265517        -1.131731
 H        -0.694422        -0.005675         0.840392
 H        -0.303410         1.045675        -0.586845
 H        -0.625276        -0.652531        -0.583781
 H         2.470226        -1.694101         1.426834
 H         2.375727        -2.204758        -0.302134
 H         5.204896         0.065121         0.488102
 H         5.133867         0.374744        -1.146109
 H         5.072849         2.738407         0.378438
 H         4.015280         2.597846        -1.022086
 H         2.541495         0.475359         2.057210
