19
Iteration:  3192
 C        -0.098579        -0.034618         0.045463
 C         1.447676         0.020413         0.008315
 C         2.353886        -1.234624         0.326043
 C         3.267625        -0.103878        -0.070126
 C         4.699854         0.492590        -0.237493
 C         4.338682         2.036136         0.050584
 O         3.098167         2.118495         0.716843
 C         2.496165         0.924940         0.955582
 O         2.138707         0.292684        -1.159593
 H        -0.171864        -0.336352         1.058909
 H        -0.615992         0.910683        -0.312199
 H        -0.592652        -0.883020        -0.502664
 H         2.499286        -1.654444         1.354288
 H         2.134783        -2.081002        -0.435190
 H         5.243415         0.239531         0.624355
 H         5.130143         0.449694        -1.266006
 H         5.271142         2.534499         0.544070
 H         4.308703         2.519345        -0.969207
 H         2.460932         0.568099         2.077846
