19
Iteration:   477charge 0 multiplicity 1
 C        -0.090621        -0.057459         0.169912
 C         1.440274         0.102386         0.045086
 C         2.274833        -1.274390         0.163491
 C         3.202597        -0.107800        -0.066525
 C         4.711063         0.495480        -0.100899
 C         4.300734         1.971558         0.013045
 O         3.037081         2.150191         0.791767
 C         2.543624         0.821428         0.941902
 O         2.309507         0.396652        -1.289665
 H        -0.341130        -0.607479         1.074915
 H        -0.670147         0.829388         0.010959
 H        -0.531066        -0.652650        -0.654452
 H         2.170258        -1.719387         1.138277
 H         2.219395        -1.942600        -0.768070
 H         5.120549         0.157332         0.778368
 H         5.379266         0.554159        -1.006083
 H         5.227606         2.383723         0.473845
 H         4.241140         2.246224        -1.059450
 H         2.573829         0.649384         2.016902
