19
Iteration:  3413
 C        -0.015734         0.290058         0.003621
 C         1.539922        -0.011879         0.079985
 C         2.416998        -1.309751         0.339878
 C         3.395946        -0.120475         0.024338
 C         4.649846         0.433911        -0.271140
 C         4.199864         2.144806        -0.006959
 O         2.912703         2.167694         0.750294
 C         2.534742         0.764405         0.943557
 O         2.145316         0.092394        -1.215220
 H        -0.519999        -0.132399         0.942218
 H        -0.120051         1.361373        -0.047933
 H        -0.408539        -0.183309        -0.901472
 H         2.497098        -1.570539         1.436950
 H         2.350289        -2.083558        -0.423688
 H         5.447129         0.143027         0.494486
 H         5.120308         0.195917        -1.174172
 H         5.040776         2.599525         0.745034
 H         4.034756         2.698908        -0.941591
 H         2.488023         0.562585         1.980363
