19
Iteration:   311
 C        -0.092996        -0.021231         0.075446
 C         1.433875         0.081676         0.071894
 C         2.372103        -1.186436         0.085470
 C         3.291745        -0.072790         0.033790
 C         4.670817         0.418508        -0.122154
 C         4.230736         1.962724        -0.034279
 O         3.038883         2.082605         0.668246
 C         2.518363         0.781180         0.963911
 O         2.303998         0.461561        -1.070091
 H        -0.442016        -0.668912         0.871459
 H        -0.523886         1.002618         0.017245
 H        -0.326107        -0.651588        -0.783731
 H         2.370535        -1.635003         1.116186
 H         2.234118        -1.993734        -0.590093
 H         5.247986        -0.040019         0.681427
 H         4.979720         0.167926        -1.127717
 H         4.933987         2.754546         0.341220
 H         3.962148         2.318781        -1.020417
 H         2.509935         0.537880         2.070459
