19
Iteration:  4324
 C        -0.068183         0.176600         0.142094
 C         1.442463        -0.055407         0.106962
 C         2.426417        -1.349395         0.330801
 C         3.295895        -0.121825        -0.080036
 C         4.738661         0.545437        -0.130970
 C         4.346078         2.013909         0.115069
 O         2.830156         2.112438         0.396293
 C         2.465072         0.823785         0.895275
 O         2.233402         0.323253        -1.107618
 H        -0.094880        -0.237025         1.175969
 H        -0.051627         1.310792         0.175171
 H        -0.491225        -0.354143        -0.780337
 H         2.612569        -2.019744         1.198003
 H         2.403218        -2.075578        -0.456920
 H         5.307360        -0.014039         0.616360
 H         5.176095         0.388310        -1.180056
 H         4.883134         2.478388         0.923482
 H         4.499037         2.579422        -0.813435
 H         2.494027         0.630147         1.994465
