19
Iteration:  3510
 C        -0.162041        -0.047966         0.004317
 C         1.403994         0.001311         0.010748
 C         2.371800        -1.179393         0.449184
 C         3.263582        -0.067265        -0.093434
 C         4.609819         0.559776        -0.237020
 C         4.370859         1.982794         0.054314
 O         3.117043         2.168518         0.712825
 C         2.615207         0.780295         0.835523
 O         2.156587         0.275446        -1.164886
 H        -0.386445        -0.151708         1.131784
 H        -0.668739         0.856042        -0.314156
 H        -0.579953        -0.939233        -0.502405
 H         2.284285        -1.376008         1.503192
 H         2.155729        -2.005503        -0.184112
 H         5.413468        -0.030765         0.546898
 H         5.159495         0.438752        -1.172686
 H         5.131089         2.421420         0.749556
 H         4.398543         2.636611        -0.790083
 H         2.559346         0.747911         2.006247
