19
Iteration:  3363charge 0 multiplicity 1
 C        -0.031714        -0.026696        -0.021802
 C         1.464682         0.108825         0.040202
 C         2.230189        -1.286415         0.349232
 C         3.259336        -0.100539         0.018499
 C         4.687930         0.475946        -0.211825
 C         4.244561         1.983492        -0.206519
 O         2.990870         2.104944         0.780963
 C         2.584097         0.828699         1.011864
 O         2.332387         0.412430        -1.080239
 H        -0.302751        -0.258398         0.957941
 H        -0.498543         0.924138        -0.415500
 H        -0.291247        -0.871206        -0.701779
 H         2.207742        -1.685997         1.335845
 H         2.125003        -1.863267        -0.638710
 H         5.455652         0.270035         0.539342
 H         5.213357         0.068811        -1.185781
 H         4.845859         2.669868         0.217189
 H         3.759306         2.224198        -1.171776
 H         2.571501         0.505065         2.136348
