19
Iteration:   375charge 0 multiplicity 1
 C        -0.021337         0.366725        -0.005794
 C         1.506322        -0.003611         0.042118
 C         2.442036        -1.360546         0.287947
 C         3.292397        -0.093574        -0.053222
 C         4.656958         0.453065        -0.405362
 C         4.196243         2.096455         0.028232
 O         2.839107         2.044739         0.870066
 C         2.463895         0.684683         0.999839
 O         2.393292         0.240759        -1.116853
 H        -0.617312         0.041090         0.857369
 H        -0.165255         1.473039         0.035073
 H        -0.423486        -0.121119        -0.873244
 H         2.530213        -1.704857         1.365053
 H         2.283357        -2.165751        -0.405691
 H         5.580625         0.143864         0.161807
 H         4.889694         0.255697        -1.451525
 H         4.887536         2.939951         0.452399
 H         3.960706         2.460687        -0.975374
 H         2.441007         0.436104         2.097567
