19
Iteration:  3761
 C        -0.124590         0.178348         0.108231
 C         1.406898        -0.032219         0.157786
 C         2.460317        -1.292378         0.311453
 C         3.193881        -0.093906        -0.115702
 C         4.629163         0.585527        -0.218734
 C         4.423230         2.070381         0.118766
 O         2.948441         2.034497         0.501146
 C         2.530109         0.730381         0.926789
 O         2.272846         0.275813        -1.132970
 H        -0.555382        -0.287833         0.991405
 H        -0.306361         1.320345         0.041646
 H        -0.537918        -0.345091        -0.837126
 H         2.580073        -1.595315         1.403969
 H         2.338416        -2.253049        -0.367890
 H         5.351703         0.071928         0.405824
 H         4.917212         0.607175        -1.204029
 H         4.866521         2.583469         1.034804
 H         4.494028         2.659199        -0.795334
 H         2.603768         0.569020         1.997166
