19
Iteration:  4863
 C        -0.003861         0.111587        -0.123937
 C         1.445399        -0.030831         0.108870
 C         2.469768        -1.296343         0.507103
 C         3.231619        -0.100021        -0.076016
 C         4.601035         0.505027        -0.323624
 C         4.315830         1.996750         0.003553
 O         2.888113         2.132072         0.627366
 C         2.553807         0.861989         0.977183
 O         2.231810         0.292282        -1.033472
 H        -0.553986        -0.249854         0.682927
 H        -0.293423         1.158877        -0.240730
 H        -0.351716        -0.370990        -0.978163
 H         2.471587        -1.502049         1.582572
 H         2.368702        -2.219289         0.027022
 H         5.372634         0.039250         0.398266
 H         5.103269         0.396152        -1.336033
 H         5.205562         2.385172         0.535171
 H         4.456542         2.406724        -1.071240
 H         2.454774         0.643096         2.055138
