19
Iteration:  3379charge 0 multiplicity 1
 C        -0.088248         0.074826        -0.046255
 C         1.448400        -0.003814         0.139244
 C         2.340965        -1.266151         0.324161
 C         3.307986        -0.084249        -0.052366
 C         4.578318         0.495992        -0.199733
 C         4.182304         2.064582        -0.136063
 O         3.112399         2.089350         0.732776
 C         2.534755         0.768617         0.962251
 O         2.314159         0.324005        -1.102039
 H        -0.679904        -0.219546         0.906162
 H        -0.472437         1.047951        -0.287071
 H        -0.453915        -0.606884        -0.811328
 H         2.468404        -1.548021         1.419906
 H         2.242274        -2.145608        -0.236363
 H         5.039081         0.332545         0.842639
 H         5.167606         0.286002        -1.067732
 H         5.170588         2.552323         0.366787
 H         4.009888         2.565456        -1.105433
 H         2.558476         0.577849         2.018384
