19
Iteration:  1372
 C         0.083279         0.216427         0.051619
 C         1.515502        -0.003067         0.190186
 C         2.291304        -1.341666         0.257714
 C         3.248459        -0.056935        -0.096876
 C         4.639383         0.549325        -0.262395
 C         4.288889         2.063885         0.019112
 O         2.862926         2.065166         0.678323
 C         2.566811         0.689750         0.906538
 O         2.254493         0.280288        -1.092167
 H        -0.306821         0.290892         1.053005
 H        -0.132302         1.127041        -0.462008
 H        -0.390375        -0.632559        -0.464921
 H         2.393608        -1.827409         1.236450
 H         2.283636        -2.027493        -0.640004
 H         5.215565         0.193819         0.675784
 H         5.139150         0.408462        -1.198869
 H         4.974367         2.625422         0.677882
 H         4.120378         2.540125        -0.918947
 H         2.737779         0.412299         1.905572
