19
Iteration:   501charge 0 multiplicity 1
 C        -0.065708         0.059129         0.064937
 C         1.463682        -0.020823         0.113067
 C         2.349405        -1.244004         0.222754
 C         3.254735        -0.063565        -0.068405
 C         4.659161         0.478248        -0.195787
 C         4.280790         2.080578         0.041515
 O         3.002314         2.041726         0.684416
 C         2.540370         0.753287         0.887326
 O         2.283858         0.399986        -1.085321
 H        -0.563319        -0.609734         0.771158
 H        -0.434215         1.082660         0.093887
 H        -0.505647        -0.216306        -0.923500
 H         2.490638        -1.787203         1.141939
 H         1.958772        -1.785445        -0.680433
 H         5.030192         0.088435         0.747796
 H         5.216048         0.198581        -1.078211
 H         5.068937         2.478629         0.610010
 H         4.203694         2.510955        -0.974509
 H         2.692832         0.514221         1.956272
