19
Iteration:  4562
 C        -0.076381        -0.083496        -0.126685
 C         1.448451         0.018953         0.247714
 C         2.325029        -1.283837         0.410556
 C         3.248148        -0.013355         0.032213
 C         4.657868         0.567936        -0.454192
 C         4.375667         1.949885         0.151479
 O         3.019159         2.175720         0.457454
 C         2.475056         0.851472         1.019757
 O         2.238248         0.314129        -0.998978
 H        -0.852603        -0.063614         0.590854
 H        -0.399519         0.611974        -0.900254
 H        -0.195941        -0.998273        -0.680364
 H         2.518853        -1.673036         1.463499
 H         2.178182        -2.104019        -0.251629
 H         5.471222         0.137421         0.158797
 H         4.677778         0.519014        -1.611643
 H         5.107453         2.116368         1.070409
 H         4.822448         2.657252        -0.629250
 H         2.627420         0.928156         2.118954
