19
Iteration:  4869charge 0 multiplicity 1
 C         0.000230         0.070015        -0.133269
 C         1.506196        -0.015520         0.191256
 C         2.394292        -1.292708         0.480918
 C         3.229150        -0.094006        -0.011518
 C         4.611782         0.505502        -0.358453
 C         4.330943         1.991649        -0.028670
 O         2.924708         2.133277         0.626448
 C         2.505375         0.835634         0.962828
 O         2.223586         0.310240        -1.027023
 H        -0.791983        -0.253925         0.635323
 H        -0.166607         1.136823        -0.392249
 H        -0.043992        -0.480151        -1.164369
 H         2.432924        -1.475769         1.565408
 H         2.355681        -2.267481        -0.114087
 H         5.246202         0.045256         0.373799
 H         5.006976         0.471452        -1.354797
 H         5.089512         2.550358         0.574538
 H         4.401400         2.495205        -0.976567
 H         2.678030         0.728261         2.063112
