19
Iteration:  3408charge 0 multiplicity 1
 C        -0.005063         0.256701        -0.002942
 C         1.506365        -0.026440         0.065371
 C         2.414616        -1.303598         0.356770
 C         3.379153        -0.086776         0.021904
 C         4.681817         0.427665        -0.271275
 C         4.256559         2.146887        -0.001677
 O         2.918095         2.182271         0.769454
 C         2.519448         0.763669         0.948241
 O         2.123201         0.099839        -1.211594
 H        -0.570531        -0.094873         0.842942
 H        -0.150815         1.362873        -0.099573
 H        -0.437563        -0.183065        -0.917550
 H         2.662876        -1.623237         1.356025
 H         2.279653        -2.091845        -0.412423
 H         5.355326         0.093082         0.580580
 H         5.210518         0.221860        -1.269530
 H         4.977305         2.666804         0.527415
 H         3.947985         2.563401        -0.979289
 H         2.547348         0.481465         2.082834
