19
Iteration:   183charge 0 multiplicity 1
 C         0.039823         0.116770         0.083715
 C         1.523079        -0.011511         0.132772
 C         2.177438        -1.348689         0.204807
 C         3.319095        -0.048942        -0.073317
 C         4.673669         0.488858        -0.080919
 C         4.235521         2.030457        -0.088129
 O         2.881407         2.090453         0.629407
 C         2.589644         0.717930         0.959273
 O         2.332628         0.416384        -1.116991
 H        -0.278818        -0.221941         1.104119
 H        -0.291587         1.206456         0.055546
 H        -0.435815        -0.365872        -0.782701
 H         2.261403        -1.682169         1.261654
 H         2.077673        -2.012995        -0.635516
 H         5.331109         0.191993         0.750531
 H         5.276624         0.069402        -0.990282
 H         4.715048         2.726731         0.567534
 H         3.900461         2.342949        -1.106257
 H         2.843257         0.354012         1.948260
