19
Iteration:  4033charge 0 multiplicity 1
 C        -0.047562        -0.018302         0.047555
 C         1.493452         0.030141         0.108344
 C         2.361325        -1.239202         0.292879
 C         3.246959        -0.051557        -0.111591
 C         4.619226         0.511241        -0.106213
 C         4.314900         2.013786        -0.034596
 O         2.999482         2.122335         0.761107
 C         2.572475         0.803902         0.869351
 O         2.188259         0.370873        -1.182157
 H        -0.533268        -0.043000         1.015208
 H        -0.464190         0.820871        -0.485893
 H        -0.298151        -0.953157        -0.481891
 H         2.617972        -1.673736         1.274277
 H         2.142402        -1.897246        -0.529207
 H         5.180165         0.144901         0.875862
 H         5.114700         0.036791        -0.926217
 H         5.142618         2.518181         0.439141
 H         4.174904         2.204542        -1.094736
 H         2.709693         0.413921         1.893794
