19
Iteration:  3759
 C        -0.123458         0.175413         0.103163
 C         1.409273        -0.047403         0.140189
 C         2.442548        -1.293362         0.311716
 C         3.202342        -0.092750        -0.125999
 C         4.639336         0.581819        -0.216062
 C         4.422477         2.078619         0.127088
 O         2.959145         2.038116         0.511978
 C         2.538243         0.758966         0.931824
 O         2.267406         0.262459        -1.137136
 H        -0.568627        -0.313930         1.007931
 H        -0.382841         1.279483         0.084665
 H        -0.568338        -0.359584        -0.772875
 H         2.582174        -1.538503         1.360819
 H         2.306207        -2.225480        -0.340399
 H         5.285322         0.047484         0.419755
 H         4.917181         0.566407        -1.220186
 H         4.906513         2.593238         1.037124
 H         4.452993         2.714049        -0.822642
 H         2.597873         0.540489         2.009086
