19
Iteration:  2304
 C         0.011671         0.117627         0.056623
 C         1.497292         0.004067         0.033178
 C         2.319266        -1.295813         0.371767
 C         3.288398        -0.149169        -0.080548
 C         4.663237         0.512820        -0.295587
 C         4.192723         2.043896        -0.155037
 O         3.008513         2.133061         0.825915
 C         2.544640         0.761408         1.032582
 O         2.242145         0.302037        -1.155782
 H        -0.370023        -0.010335         1.069456
 H        -0.319694         1.136410        -0.274408
 H        -0.441658        -0.526416        -0.770822
 H         2.495277        -1.679874         1.516338
 H         1.998655        -1.974239        -0.404521
 H         5.477257         0.301939         0.425459
 H         5.205327         0.305462        -1.290771
 H         4.967127         2.640141         0.345148
 H         3.867320         2.606372        -0.946358
 H         2.427508         0.352461         2.087869
