19
Iteration:  1766charge 0 multiplicity 1
 C         0.025483         0.204354         0.081004
 C         1.465971        -0.001889         0.063185
 C         2.282254        -1.282936         0.295063
 C         3.333933        -0.163136        -0.014793
 C         4.644486         0.616193        -0.293312
 C         4.121868         2.042434        -0.118603
 O         2.990004         2.011634         0.833441
 C         2.544290         0.691144         0.948713
 O         2.326643         0.339111        -1.155140
 H        -0.252084        -0.091413         1.156913
 H        -0.232572         1.321149        -0.080035
 H        -0.257262        -0.367946        -0.813361
 H         2.230420        -1.692871         1.419204
 H         2.050621        -2.091520        -0.389621
 H         5.542063         0.383397         0.386574
 H         5.022629         0.421259        -1.380442
 H         5.034990         2.576215         0.418719
 H         3.719318         2.319729        -1.112039
 H         2.580500         0.386316         2.042319
