19
Iteration:  1541charge 0 multiplicity 1
 C         0.018957         0.307886         0.010656
 C         1.520357        -0.056100         0.139528
 C         2.479697        -1.349071         0.236592
 C         3.218145        -0.049055        -0.145266
 C         4.563372         0.564253        -0.194766
 C         4.147697         1.986473        -0.135336
 O         3.006375         2.073156         0.814689
 C         2.543944         0.709363         1.055735
 O         2.228005         0.267292        -1.124673
 H        -0.297949         0.224743         1.058053
 H         0.144333         1.279486        -0.509686
 H        -0.347903        -0.540245        -0.577246
 H         2.490088        -1.866592         1.236214
 H         2.410921        -2.036436        -0.527658
 H         4.951585         0.169432         0.788329
 H         5.221215         0.394978        -1.144612
 H         4.826443         2.846307         0.229435
 H         3.883021         2.423495        -1.212048
 H         2.582309         0.342180         2.051342
