19
Iteration:  4508charge 0 multiplicity 1
 C        -0.007647         0.111934         0.134028
 C         1.450080         0.019700         0.066433
 C         2.369746        -1.228670         0.463489
 C         3.303636        -0.126671        -0.188486
 C         4.718701         0.516440        -0.161131
 C         4.324080         2.089467         0.133149
 O         2.846276         2.097406         0.595233
 C         2.488590         0.839826         0.727499
 O         2.234172         0.182896        -1.189257
 H        -0.295447        -0.299582         1.058413
 H        -0.297510         1.155060         0.131558
 H        -0.589680        -0.335340        -0.630188
 H         2.688379        -1.488090         1.528328
 H         2.185059        -2.136801        -0.068052
 H         5.350140         0.080456         0.669764
 H         5.454578         0.397985        -1.095788
 H         5.016687         2.473240         0.917123
 H         4.477355         2.490226        -0.901443
 H         2.470712         0.564689         1.814456
