19
Iteration:  4845
 C        -0.193168         0.093526        -0.048104
 C         1.315929        -0.076902         0.071225
 C         2.277806        -1.351181        -0.088977
 C         3.228322        -0.069265         0.012915
 C         4.648911         0.081320         0.615931
 O         4.495642         0.017293         2.039692
 C         3.134614        -0.253678         2.375074
 C         2.408455         0.368127         1.252013
 O         2.339600         0.663178        -0.848509
 H        -0.535808         0.866409         0.639508
 H        -0.358075         0.477044        -1.066004
 H        -0.939299        -0.687892         0.153396
 H         2.134030        -2.067333         0.763160
 H         2.198891        -1.902513        -1.008963
 H         5.326849        -0.694231         0.273850
 H         5.123195         1.103437         0.378402
 H         2.879836        -1.299254         2.607628
 H         2.945588         0.249215         3.279536
 H         2.440242         1.408600         1.195294
