19
Iteration:  1461charge 0 multiplicity 1
 C        -0.059557        -0.068810        -0.092623
 C         1.390709        -0.080645         0.214241
 C         2.263580        -1.342417         0.187480
 C         3.162834        -0.048008         0.111378
 C         4.646377         0.040957         0.449844
 O         4.351792        -0.303060         1.923942
 C         3.100757         0.174707         2.391289
 C         2.338016         0.595293         1.167594
 O         2.445489         0.551156        -0.942445
 H        -0.488439        -0.904132         0.600145
 H        -0.551113         0.963000         0.141969
 H        -0.159980        -0.204069        -1.187294
 H         2.227329        -1.724865         1.239589
 H         2.151955        -2.002317        -0.694467
 H         5.269589        -0.841088         0.229832
 H         5.153802         1.076071         0.336194
 H         2.577276        -0.538391         2.960579
 H         3.100916         1.077423         3.051645
 H         2.276340         1.705737         1.016605
