19
Iteration:  1245
 C        -0.044957         0.006943         0.016814
 C         1.393565        -0.135421         0.202579
 C         2.365908        -1.274179         0.142082
 C         3.218226        -0.057580        -0.007404
 C         4.666369         0.000066         0.596136
 O         4.392763        -0.275738         2.025744
 C         3.041194         0.071854         2.384632
 C         2.372850         0.712360         1.077765
 O         2.270573         0.480555        -1.038235
 H        -0.620116        -0.637532         0.643751
 H        -0.523482         1.141301         0.286519
 H        -0.450714        -0.203638        -1.011393
 H         2.542438        -1.898133         1.054184
 H         2.375236        -1.888806        -0.782331
 H         5.383785        -0.721948         0.268315
 H         5.108489         1.023119         0.474515
 H         2.433791        -0.809748         2.703845
 H         3.097944         0.806273         3.233550
 H         2.305502         1.852314         0.926168
