19
Iteration:  4587charge 0 multiplicity 1
 C        -0.083419         0.077043        -0.083895
 C         1.402225        -0.085983         0.064781
 C         2.281349        -1.302689        -0.116360
 C         3.194431        -0.103726         0.109614
 C         4.627344         0.057703         0.541797
 O         4.484828         0.035180         1.978203
 C         3.066336        -0.261791         2.368366
 C         2.270482         0.371389         1.257299
 O         2.370965         0.689188        -0.745238
 H        -0.180493         1.108502        -0.360434
 H        -0.619002        -0.606497        -0.762924
 H        -0.508868         0.092172         0.961378
 H         2.183044        -1.995392         0.688668
 H         2.300053        -1.687761        -1.035065
 H         5.203609        -0.883071         0.218055
 H         5.102264         0.948080         0.032646
 H         2.862644        -1.309728         2.453544
 H         3.038316         0.121968         3.425603
 H         2.247916         1.445075         1.508752
