19
Iteration:  3540charge 0 multiplicity 1
 C        -0.110481         0.026243        -0.125020
 C         1.410345        -0.093153         0.202006
 C         2.195124        -1.332287         0.239035
 C         3.222046        -0.026111         0.032316
 C         4.652045         0.042178         0.583792
 O         4.468329        -0.298005         1.964177
 C         3.093836         0.130982         2.381598
 C         2.382053         0.710974         1.181494
 O         2.342360         0.423698        -1.059302
 H        -0.603674        -0.036087         0.899684
 H        -0.678952         0.885293        -0.604155
 H        -0.485447        -0.915686        -0.607810
 H         2.124687        -1.774721         1.299692
 H         2.127367        -2.017665        -0.586384
 H         5.345199        -0.838368         0.274999
 H         5.180355         1.064192         0.347813
 H         2.716679        -0.806295         2.939047
 H         3.280039         0.969273         3.148854
 H         2.311765         1.783132         1.012592
