19
Iteration:  4233charge 0 multiplicity 1
 C        -0.141840         0.098289        -0.126984
 C         1.406090        -0.098405         0.083095
 C         2.321091        -1.400198        -0.012982
 C         3.240150        -0.055323         0.087790
 C         4.605962         0.049533         0.592445
 O         4.497195        -0.131859         2.036951
 C         3.074411        -0.118159         2.368059
 C         2.371374         0.468463         1.207357
 O         2.258660         0.712130        -0.851750
 H        -0.510575         0.433110         0.852778
 H        -0.574127         0.722913        -0.930491
 H        -0.667850        -0.770270        -0.130384
 H         2.601756        -2.114416         0.747722
 H         2.579709        -1.887823        -1.020954
 H         5.242023        -0.752952         0.171544
 H         5.202427         0.878124         0.419569
 H         2.772587        -1.161886         2.600617
 H         2.962429         0.337965         3.437176
 H         2.195502         1.544956         1.059478
