19
Iteration:  2450
 C        -0.077884         0.258815        -0.250895
 C         1.317780        -0.127312         0.114590
 C         2.208524        -1.400174         0.120500
 C         3.136104        -0.306933         0.141530
 C         4.645592         0.048924         0.563986
 O         4.552455         0.099945         1.976026
 C         3.172164        -0.047311         2.485197
 C         2.404406         0.567000         1.264512
 O         2.246465         0.345998        -0.904412
 H        -0.767790         0.292952         0.595883
 H        -0.038547         1.229366        -0.642742
 H        -0.600203        -0.379454        -1.059769
 H         2.301224        -2.225895         0.862945
 H         2.120391        -1.839796        -0.875885
 H         5.460908        -0.506908         0.008128
 H         4.861996         1.031587         0.171196
 H         2.885676        -1.064532         2.573078
 H         3.116631         0.556966         3.481047
 H         2.620749         1.686060         1.028676
