19
Iteration:  1353charge 0 multiplicity 1
 C        -0.144677         0.208685        -0.120640
 C         1.358451        -0.121255         0.133354
 C         2.186825        -1.424856         0.093434
 C         3.208716        -0.189569         0.052599
 C         4.642375         0.036795         0.480712
 O         4.509262         0.217950         2.077769
 C         3.144998        -0.134595         2.403462
 C         2.358140         0.391560         1.234315
 O         2.388325         0.465405        -0.942658
 H        -0.831034         0.246432         0.678566
 H        -0.010485         1.280880        -0.489585
 H        -0.538709        -0.427271        -0.913707
 H         2.054972        -2.129007         0.942525
 H         1.978171        -2.048737        -0.789580
 H         5.256552        -0.831576         0.365244
 H         5.143287         1.007747         0.246215
 H         2.916502        -1.281683         2.512359
 H         2.823910         0.387057         3.332902
 H         2.219612         1.503937         1.182299
