19
Iteration:   291
 C        -0.129522         0.121377        -0.120807
 C         1.398058        -0.060523         0.183513
 C         2.173448        -1.359972         0.062043
 C         3.257080        -0.213768         0.060822
 C         4.648702        -0.090820         0.590903
 O         4.429403         0.292475         2.009717
 C         3.130128        -0.094076         2.353738
 C         2.404795         0.492036         1.158226
 O         2.316504         0.454041        -0.870505
 H        -0.579305        -0.598894         0.634800
 H        -0.529581         1.119058         0.057544
 H        -0.324269        -0.174156        -1.136993
 H         2.169565        -2.107760         0.987115
 H         2.101242        -1.870715        -0.949790
 H         5.237862        -1.067796         0.372911
 H         5.341268         0.641309         0.204918
 H         2.958542        -1.238561         2.208703
 H         2.921261         0.095518         3.388616
 H         2.600256         1.579620         1.100859
