19
Iteration:  1503charge 0 multiplicity 1
 C        -0.096871         0.101966        -0.133704
 C         1.357269        -0.140111         0.121446
 C         2.322088        -1.317421         0.171646
 C         3.285680         0.016845         0.149837
 C         4.681477         0.106629         0.591235
 O         4.431594        -0.329863         1.956081
 C         3.095113         0.110215         2.397938
 C         2.329572         0.652994         1.142702
 O         2.226660         0.369555        -0.950487
 H        -0.553203        -0.381022         0.864818
 H        -0.240544         1.126022        -0.461361
 H        -0.452354        -0.500171        -0.953755
 H         2.291496        -2.157668         0.956425
 H         2.456266        -1.827145        -0.819354
 H         5.429447        -0.512282         0.028769
 H         5.097808         1.128330         0.551913
 H         2.628810        -0.834982         2.814417
 H         3.244045         0.994089         3.127121
 H         2.294449         1.781600         1.061530
