19
Iteration:  4317charge 0 multiplicity 1
 C        -0.075389         0.103560        -0.057951
 C         1.449758        -0.083781         0.066313
 C         2.245566        -1.335985        -0.204630
 C         3.149715        -0.040438         0.109482
 C         4.610638         0.035655         0.586076
 O         4.490602        -0.050683         2.065556
 C         3.116331        -0.217900         2.516408
 C         2.365676         0.422055         1.246635
 O         2.251268         0.665499        -0.911381
 H        -0.216890         1.087292        -0.492324
 H        -0.371473        -0.588654        -0.914710
 H        -0.782375        -0.076875         0.859290
 H         2.371263        -1.982856         0.666679
 H         2.546118        -1.709873        -1.160724
 H         5.159661        -0.856846         0.284595
 H         5.088703         1.072170         0.309268
 H         2.935263        -1.305270         2.540695
 H         3.092142         0.262315         3.440410
 H         2.381518         1.507267         1.409056
