19
Iteration:  4750
 C        -0.120259        -0.011290        -0.074175
 C         1.364166        -0.051852         0.128460
 C         2.405011        -1.320131        -0.029104
 C         3.204037        -0.001011         0.168405
 C         4.575223         0.183619         0.491388
 O         4.442860        -0.419673         1.951304
 C         3.071733        -0.047976         2.381965
 C         2.315706         0.605534         1.238392
 O         2.333800         0.647617        -0.845592
 H        -0.549484         0.772119         0.487435
 H        -0.215033        -0.132122        -1.162374
 H        -0.512040        -0.897842         0.491645
 H         2.349063        -2.294204         0.626045
 H         2.463629        -1.549308        -1.051308
 H         5.271604        -0.448951        -0.058426
 H         4.941209         1.179410         0.596596
 H         2.708220        -0.996250         2.787326
 H         3.206924         0.551746         3.294919
 H         2.543837         1.720059         1.187243
