19
Iteration:  2115charge 0 multiplicity 1
 C        -0.115275         0.105365        -0.244647
 C         1.357696        -0.118875         0.163745
 C         2.164678        -1.402430         0.186879
 C         3.121397        -0.201503         0.184423
 C         4.608748         0.102923         0.434903
 O         4.577801        -0.052516         2.036674
 C         3.162404         0.067215         2.383163
 C         2.420728         0.589283         1.211110
 O         2.319811         0.393221        -0.891376
 H        -0.634868        -0.747270         0.112152
 H        -0.644705         1.118176        -0.042083
 H        -0.001605         0.249218        -1.372368
 H         2.173678        -1.944187         1.109574
 H         1.916128        -1.947545        -0.718367
 H         5.379082        -0.613943         0.043594
 H         4.874164         1.240697         0.300295
 H         2.852199        -1.037064         2.678175
 H         3.045255         0.723202         3.262878
 H         2.463583         1.634420         1.027186
