19
Iteration:  2962
 C        -0.118025         0.119888        -0.101120
 C         1.366081        -0.080851         0.148918
 C         2.268710        -1.364442         0.161541
 C         3.208222        -0.139874         0.142853
 C         4.677345        -0.090662         0.501056
 O         4.490773        -0.124291         1.935717
 C         3.081367         0.205367         2.408329
 C         2.305292         0.490442         1.171354
 O         2.355915         0.485457        -0.918425
 H        -0.616439        -0.778392         0.276503
 H        -0.544328         1.161011         0.295776
 H        -0.243542         0.221864        -1.151765
 H         2.145707        -2.036761         1.036795
 H         2.285509        -1.977536        -0.797077
 H         5.262318        -0.879663         0.179406
 H         5.066010         0.849559         0.107402
 H         2.695734        -0.825583         2.760753
 H         3.039591         1.058389         3.155264
 H         2.323066         1.583179         1.219098
