19
Iteration:  2384charge 0 multiplicity 1
 C        -0.112130         0.032021         0.005450
 C         1.406298        -0.002832         0.132431
 C         2.188014        -1.351670        -0.003199
 C         3.220975        -0.161840         0.079236
 C         4.676622        -0.149743         0.649603
 O         4.510735         0.066176         2.048101
 C         3.024756         0.066664         2.386784
 C         2.406590         0.645512         1.135463
 O         2.296859         0.426900        -1.046081
 H        -0.332476        -0.329933         0.972502
 H        -0.401244         1.007054         0.061212
 H        -0.361278        -0.592131        -0.827957
 H         2.158122        -2.070044         0.817416
 H         1.911340        -1.898026        -0.920077
 H         5.244388        -1.130578         0.568385
 H         5.354132         0.574444         0.264640
 H         2.653509        -0.951507         2.565373
 H         3.045729         0.638283         3.397707
 H         2.498216         1.770543         0.987373
