19
Iteration:  1891
 C        -0.119233         0.201276        -0.008727
 C         1.396816        -0.118210         0.222424
 C         2.290967        -1.433103         0.032195
 C         3.210300        -0.199407         0.055873
 C         4.694688        -0.211547         0.570936
 O         4.436262         0.307524         2.004248
 C         3.088230        -0.069698         2.388865
 C         2.398937         0.513708         1.168650
 O         2.283079         0.456583        -0.978669
 H        -0.645880        -0.752027         0.170945
 H        -0.421596         1.109032         0.558983
 H        -0.195637         0.444287        -1.075617
 H         2.374255        -2.174064         0.869647
 H         2.188286        -1.755182        -1.025192
 H         5.072121        -1.198508         0.516427
 H         5.375890         0.581302         0.254058
 H         2.672380        -1.097289         2.428983
 H         2.595839         0.599012         3.116254
 H         2.373232         1.667306         1.168474
