19
Iteration:  3945charge 0 multiplicity 1
 C        -0.100440         0.047900        -0.097269
 C         1.339533        -0.108831         0.236248
 C         2.225919        -1.318657         0.116660
 C         3.161780        -0.036025         0.085075
 C         4.656464        -0.095767         0.520394
 O         4.536583        -0.034026         2.041092
 C         3.052488        -0.008469         2.336666
 C         2.367999         0.501833         1.176225
 O         2.358536         0.571403        -0.960681
 H         0.087716         0.278163        -1.202024
 H        -0.686506        -0.828417         0.098648
 H        -0.595146         0.928847         0.355843
 H         2.317550        -2.062876         0.967850
 H         2.292867        -1.746424        -0.932009
 H         5.058471        -1.073065         0.300875
 H         5.118389         0.879756         0.206503
 H         2.744409        -1.044561         2.497509
 H         2.954064         0.552204         3.256879
 H         2.368880         1.576732         1.232399
