19
Iteration:  1907charge 0 multiplicity 1
 C        -0.112417         0.133024        -0.066735
 C         1.376979        -0.093292         0.065278
 C         2.234380        -1.412261         0.055064
 C         3.205552        -0.198090         0.092518
 C         4.639184        -0.155811         0.530010
 O         4.481072         0.237580         1.980858
 C         3.051419         0.012039         2.441894
 C         2.347158         0.461680         1.166023
 O         2.356314         0.513008        -0.886084
 H        -0.620472        -0.786081         0.292491
 H        -0.410293         1.015659         0.528700
 H        -0.446533         0.426503        -1.078256
 H         2.179192        -2.030563         0.958545
 H         2.170995        -2.043202        -0.819196
 H         5.100522        -1.186762         0.675836
 H         5.288631         0.526373        -0.048120
 H         3.183157        -1.061083         2.676881
 H         3.190225         0.506064         3.405742
 H         2.482770         1.505727         1.033688
