19
Iteration:  1437charge 0 multiplicity 1
 C        -0.121017        -0.016420        -0.081026
 C         1.376727        -0.101024         0.059110
 C         2.341230        -1.288420         0.026749
 C         3.147316        -0.057552         0.117369
 C         4.643220        -0.127633         0.567464
 O         4.534955        -0.197513         2.037931
 C         3.075360         0.187828         2.486519
 C         2.365196         0.673694         1.159403
 O         2.264862         0.476294        -0.985282
 H        -0.332404        -0.925153         0.742665
 H        -0.551740         0.892282         0.305112
 H        -0.483821        -0.124651        -1.095470
 H         2.277996        -1.907118         0.965179
 H         2.397955        -1.664407        -1.026647
 H         5.237414        -1.048210         0.196079
 H         5.119112         0.876951         0.429024
 H         2.473401        -0.672376         2.921314
 H         3.223790         0.944517         3.318093
 H         2.330706         1.755626         0.925521
