19
Iteration:  4246
 C        -0.110792         0.082909        -0.082745
 C         1.375234        -0.120650         0.033332
 C         2.375114        -1.283722        -0.056003
 C         3.212367        -0.049850         0.130989
 C         4.748694         0.011506         0.572968
 O         4.495192        -0.076630         2.032223
 C         3.032510        -0.203385         2.426155
 C         2.341722         0.486862         1.246703
 O         2.184443         0.653120        -0.898537
 H        -0.502007         0.744729         0.705905
 H        -0.204169         0.605544        -1.002399
 H        -0.592529        -0.823567        -0.158504
 H         2.137252        -1.927864         0.804438
 H         2.304308        -1.849336        -1.035880
 H         5.284187        -0.916784         0.222628
 H         5.166008         0.949440         0.344116
 H         2.768475        -1.220884         2.490488
 H         3.006620         0.398474         3.420271
 H         2.482490         1.574607         1.368370
