19
Iteration:  4355
 C        -0.094462         0.119341        -0.051766
 C         1.350292        -0.074727         0.037006
 C         2.386406        -1.355842        -0.052071
 C         3.235098        -0.040745         0.122946
 C         4.625078         0.109291         0.549677
 O         4.448438        -0.136519         1.952998
 C         3.037133        -0.224848         2.397155
 C         2.332463         0.435634         1.266081
 O         2.324208         0.699789        -0.817930
 H        -0.246414         0.977307        -0.835376
 H        -0.491921        -0.795921        -0.551332
 H        -0.647897         0.228798         0.859485
 H         2.281536        -2.120505         0.770234
 H         2.491652        -1.940383        -1.019046
 H         5.242743        -0.675990         0.029981
 H         5.127103         1.000141         0.435661
 H         2.728143        -1.273713         2.657373
 H         2.949563         0.298860         3.460176
 H         2.165161         1.516166         1.358580
