19
Iteration:   368charge 0 multiplicity 1
 C        -0.048709         0.065885        -0.109600
 C         1.390519        -0.131141         0.134949
 C         2.205418        -1.396406         0.058503
 C         3.202901        -0.138741         0.027588
 C         4.583385         0.055016         0.558690
 O         4.512819        -0.076343         2.052739
 C         3.127150         0.046665         2.453762
 C         2.406572         0.564705         1.190442
 O         2.261441         0.512484        -0.965060
 H        -0.738371        -0.532124         0.674978
 H        -0.385896         1.087508        -0.127580
 H        -0.108589        -0.427511        -1.050405
 H         2.330316        -1.797440         1.130642
 H         2.119675        -2.087862        -0.875184
 H         5.369995        -0.755065         0.233779
 H         4.952548         1.051905         0.283180
 H         2.682041        -0.934745         2.884520
 H         2.983961         0.806436         3.171117
 H         2.425251         1.655283         1.053061
