19
Iteration:  2425
 C         0.000428         0.325384        -0.150445
 C         1.359741        -0.227179         0.150565
 C         2.202982        -1.450566         0.148078
 C         3.145874        -0.161822         0.056772
 C         4.632391         0.006796         0.520644
 O         4.504417         0.112318         1.924941
 C         3.102857         0.004548         2.482704
 C         2.282131         0.412876         1.257837
 O         2.362072         0.430833        -0.926103
 H        -0.666014         0.314702         0.813660
 H        -0.038725         1.248095        -0.772012
 H        -0.501378        -0.504107        -0.773333
 H         2.328958        -1.995763         1.039677
 H         2.250783        -2.094081        -0.732109
 H         5.189165        -0.786100         0.137995
 H         5.120922         0.955326         0.062413
 H         2.960574        -1.010345         2.716463
 H         3.008030         0.631558         3.366933
 H         2.192770         1.466745         1.119501
