19
Iteration:  4196
 C        -0.051109         0.048077        -0.081176
 C         1.413144        -0.055981         0.154032
 C         2.251711        -1.375066        -0.052688
 C         3.152249        -0.007208         0.080972
 C         4.644529         0.154353         0.587032
 O         4.456685        -0.264810         1.955482
 C         3.063028        -0.065922         2.505205
 C         2.326275         0.525226         1.230576
 O         2.378007         0.584631        -0.938842
 H        -0.395039         0.103586         0.950498
 H        -0.400892         0.979768        -0.555915
 H        -0.240326        -0.958226        -0.682333
 H         2.316140        -2.236829         0.629963
 H         2.226401        -1.593700        -1.078957
 H         5.275233        -0.607611         0.194819
 H         4.926383         1.237655         0.375759
 H         2.600424        -1.109826         2.656618
 H         2.968287         0.620551         3.280991
 H         2.198299         1.600656         1.428056
