19
Iteration:  3505
 C        -0.081847         0.025491        -0.050128
 C         1.481164        -0.070710         0.151108
 C         2.338343        -1.386306         0.194810
 C         3.203542        -0.050983         0.021033
 C         4.629065        -0.094421         0.543803
 O         4.324883        -0.251397         1.950117
 C         3.089850         0.255323         2.370216
 C         2.398578         0.691557         1.169895
 O         2.283403         0.454156        -0.978130
 H        -0.393444        -0.738860         0.622547
 H        -0.537532         1.030551         0.217819
 H        -0.381508        -0.298419        -0.997770
 H         2.307086        -1.940974         1.210826
 H         2.377705        -2.043410        -0.700450
 H         5.207519        -0.996189         0.310394
 H         5.266182         0.849373         0.335681
 H         2.474405        -0.626406         2.942313
 H         3.155188         1.132322         3.117277
 H         2.508451         1.780822         1.126281
