19
Iteration:   830charge 0 multiplicity 1
 C        -0.149481         0.186497        -0.157022
 C         1.338087        -0.167224         0.120998
 C         2.134734        -1.432800        -0.032789
 C         3.198092        -0.169187         0.212440
 C         4.636482        -0.080155         0.532705
 O         4.493833         0.366221         1.961605
 C         3.202234        -0.153219         2.415409
 C         2.346460         0.348658         1.298007
 O         2.399420         0.527634        -0.834624
 H        -0.924217        -0.279602         0.413237
 H        -0.233225         1.400049        -0.352336
 H        -0.205310        -0.191464        -1.253888
 H         2.098201        -2.144184         0.801876
 H         2.072751        -1.784259        -1.048122
 H         5.297903        -1.028440         0.293621
 H         5.141165         0.684685        -0.110185
 H         3.291238        -1.236228         2.534494
 H         2.802860         0.234721         3.319988
 H         2.314783         1.501822         1.256920
