19
Iteration:  4607charge 0 multiplicity 1
 C        -0.036286         0.140558        -0.067751
 C         1.450485        -0.163936         0.149896
 C         2.336812        -1.360779        -0.133147
 C         3.090341        -0.029792         0.058381
 C         4.589738         0.000643         0.561287
 O         4.431173         0.015392         2.014740
 C         3.124815        -0.294208         2.482010
 C         2.316945         0.350251         1.307692
 O         2.318843         0.783890        -0.943598
 H        -0.280715         1.029185        -0.659099
 H        -0.344655        -0.740424        -0.629730
 H        -0.517235         0.371660         0.929256
 H         2.477022        -2.044353         0.713547
 H         2.275449        -1.761906        -1.148615
 H         5.009758        -0.881491         0.012716
 H         5.123413         0.979599         0.264835
 H         2.990325        -1.317073         2.685017
 H         2.973772         0.282920         3.380658
 H         2.241726         1.427418         1.567284
