19
Iteration:  4140charge 0 multiplicity 1
 C         0.007796         0.009363        -0.066198
 C         1.387938        -0.127900         0.226471
 C         2.372424        -1.255954        -0.019184
 C         3.166900        -0.000678         0.120356
 C         4.566727         0.051056         0.587586
 O         4.395999        -0.319097         1.930736
 C         3.075444         0.042128         2.407735
 C         2.309774         0.587554         1.223793
 O         2.341317         0.550428        -0.944652
 H        -0.578430        -0.944923         0.162412
 H        -0.289693         0.877553         0.520211
 H        -0.226718         0.303723        -1.160350
 H         2.478861        -2.023359         0.751894
 H         2.453167        -1.569702        -1.049558
 H         5.274643        -0.639445         0.104721
 H         5.054403         1.011553         0.328021
 H         2.512088        -0.868455         2.823486
 H         3.123364         0.642588         3.256371
 H         2.180146         1.672936         1.272785
