19
Iteration:  4489
 C        -0.047551         0.006570        -0.056446
 C         1.475018        -0.066153         0.133187
 C         2.261285        -1.243603        -0.047600
 C         3.277270        -0.022922         0.002968
 C         4.627224         0.139212         0.610038
 O         4.453491        -0.319822         1.981391
 C         3.113905        -0.110277         2.478609
 C         2.338370         0.533469         1.192998
 O         2.195726         0.648639        -0.958184
 H        -0.544718         0.530046         0.703577
 H        -0.215874         0.221231        -1.094206
 H        -0.475479        -1.037072         0.149850
 H         2.134231        -1.842093         0.900869
 H         2.215342        -1.747906        -0.947287
 H         5.416453        -0.565158         0.270213
 H         5.087494         1.097266         0.706104
 H         2.626128        -1.099735         2.778694
 H         2.952888         0.600630         3.445811
 H         2.294859         1.583278         1.494765
