19
Iteration:  4176charge 0 multiplicity 1
 C        -0.142855         0.029040        -0.090591
 C         1.421644        -0.104534         0.078553
 C         2.345387        -1.260252         0.042431
 C         3.245249        -0.091702         0.117242
 C         4.635858         0.112231         0.609401
 O         4.463243        -0.301192         1.980990
 C         3.063981        -0.082071         2.402062
 C         2.354358         0.541564         1.199158
 O         2.268376         0.647731        -0.927203
 H        -0.622052        -0.221774         0.832217
 H        -0.322376         1.139793        -0.132069
 H        -0.509372        -0.508166        -1.026321
 H         2.385352        -1.811288         0.980870
 H         2.562821        -1.896732        -0.788097
 H         5.323079        -0.513242         0.141017
 H         4.772262         1.185448         0.647051
 H         2.549056        -1.107478         2.592924
 H         3.117001         0.662627         3.175488
 H         2.380114         1.626514         0.969609
