19
Iteration:    35
 C        -0.058906         0.216832        -0.108845
 C         1.355558        -0.191252         0.073780
 C         2.193798        -1.493565         0.002224
 C         3.179688        -0.315698         0.059483
 C         4.524186         0.053869         0.578525
 O         4.547131         0.151436         2.053805
 C         3.173241         0.033271         2.511558
 C         2.334461         0.413723         1.223380
 O         2.363441         0.486353        -0.964299
 H        -0.592931        -0.124054         0.681347
 H        -0.097378         1.369646        -0.083381
 H        -0.566617        -0.145836        -1.072050
 H         2.148599        -2.321481         0.703008
 H         2.260942        -1.868973        -1.052692
 H         5.509481        -0.340754         0.322870
 H         4.447637         1.067483         0.150345
 H         2.930804        -0.924464         2.935415
 H         3.053650         0.781648         3.324219
 H         2.341665         1.528685         1.132922
