19
Iteration:  3944charge 0 multiplicity 1
 C        -0.087216         0.050388        -0.091778
 C         1.343049        -0.099674         0.243193
 C         2.220872        -1.322555         0.114537
 C         3.156697        -0.051210         0.078432
 C         4.657771        -0.086913         0.527342
 O         4.536862        -0.033219         2.035059
 C         3.057462        -0.004991         2.347347
 C         2.371552         0.499959         1.167243
 O         2.357104         0.575488        -0.957272
 H         0.091453         0.246839        -1.233304
 H        -0.704400        -0.844424         0.098509
 H        -0.602190         0.898363         0.328075
 H         2.302062        -2.043515         0.932768
 H         2.256903        -1.768908        -0.935841
 H         5.040662        -1.041192         0.293270
 H         5.121208         0.873109         0.243542
 H         2.694116        -1.100366         2.511536
 H         2.934829         0.541148         3.249884
 H         2.348419         1.585653         1.188935
