19
Iteration:  1012
 C        -0.175797         0.016869        -0.188233
 C         1.351715        -0.088523         0.146987
 C         2.196191        -1.346334         0.091737
 C         3.127825        -0.096238         0.136972
 C         4.636486        -0.019694         0.562915
 O         4.594525        -0.122888         2.043145
 C         3.186849         0.040741         2.474595
 C         2.358008         0.535374         1.188730
 O         2.324031         0.614962        -0.995291
 H        -0.857996        -0.345453         0.632296
 H        -0.434354         0.937667        -0.514496
 H        -0.313893        -0.670580        -1.075382
 H         2.288279        -2.168671         0.913660
 H         2.130584        -1.908597        -0.858858
 H         5.348794        -0.714746         0.144646
 H         5.132474         0.953508         0.429495
 H         2.653047        -0.883077         2.723412
 H         3.146723         0.649103         3.362207
 H         2.462729         1.612832         1.069191
