19
Iteration:  2223charge 0 multiplicity 1
 C        -0.054958         0.017511         0.026479
 C         1.391757        -0.061114         0.033243
 C         2.269415        -1.324449         0.054584
 C         3.204699        -0.222092         0.057198
 C         4.758741        -0.244241         0.625680
 O         4.432351         0.098568         2.034758
 C         3.051865         0.084180         2.404644
 C         2.377278         0.600978         1.133815
 O         2.276825         0.562087        -0.989931
 H        -0.400651         0.077565         1.048764
 H        -0.613259         0.860378        -0.444345
 H        -0.456930        -1.004706        -0.324214
 H         2.057657        -1.945844         0.951522
 H         2.316407        -1.936317        -0.891301
 H         5.201984        -1.157674         0.478438
 H         5.397445         0.572146         0.122298
 H         2.559075        -0.824403         2.670754
 H         2.779172         0.727296         3.173471
 H         2.255432         1.698611         1.019004
