19
Iteration:  3763charge 0 multiplicity 1
 C        -0.110520         0.022265        -0.069154
 C         1.338563        -0.095134         0.118698
 C         2.360742        -1.281227         0.102603
 C         3.199577        -0.076066         0.065380
 C         4.622277         0.034598         0.601505
 O         4.463650        -0.267372         1.986951
 C         3.123389         0.007818         2.468730
 C         2.332657         0.615349         1.185481
 O         2.297543         0.512544        -1.034488
 H        -0.323376         0.282914        -1.055107
 H        -0.952413        -0.513366         0.324952
 H        -0.479264         1.084040         0.271821
 H         2.384029        -1.798771         1.035671
 H         2.514907        -1.887155        -0.759870
 H         5.323804        -0.647207         0.015112
 H         4.958560         1.093441         0.484963
 H         2.757239        -0.967802         2.823757
 H         3.274301         0.803265         3.179189
 H         2.387110         1.722451         1.310372
