19
Iteration:   507charge 0 multiplicity 1
 C        -0.054803         0.060305        -0.136449
 C         1.429183        -0.054939         0.145923
 C         2.284216        -1.352673         0.139468
 C         3.197616        -0.112259         0.057173
 C         4.634545        -0.043764         0.495610
 O         4.455170         0.045722         1.959363
 C         3.050541        -0.063990         2.353717
 C         2.314132         0.587238         1.271183
 O         2.315585         0.448118        -0.879979
 H        -0.692348        -0.615887         0.463013
 H        -0.487696         1.079966         0.102470
 H        -0.163997        -0.161090        -1.200073
 H         2.201385        -1.966870         1.037315
 H         2.215665        -1.788255        -0.844794
 H         5.398520        -0.880026         0.386937
 H         5.114828         1.022432         0.201624
 H         2.805072        -1.141319         2.556152
 H         3.044411         0.454815         3.404330
 H         2.391396         1.695627         1.256341
