19
Iteration:  2300charge 0 multiplicity 1
 C        -0.102421         0.108976        -0.175812
 C         1.385164        -0.097309         0.081189
 C         2.255556        -1.420321         0.304126
 C         3.184538        -0.167870         0.086902
 C         4.631964         0.115553         0.587670
 O         4.484939        -0.254442         1.946414
 C         3.172424         0.158528         2.474169
 C         2.396167         0.639558         1.142378
 O         2.272713         0.387639        -0.996019
 H        -0.717950        -0.598177         0.363290
 H        -0.279649         1.280269        -0.044653
 H        -0.344211         0.072660        -1.306391
 H         2.273115        -1.994762         1.289587
 H         2.229683        -2.108737        -0.573910
 H         5.536256        -0.290487         0.142679
 H         4.419354         1.256519         0.442178
 H         2.527318        -0.647441         2.891581
 H         3.272277         0.927822         3.209003
 H         2.309180         1.746615         0.924069
