19
Iteration:  3021charge 0 multiplicity 1
 C        -0.093954         0.137183         0.000632
 C         1.363470        -0.097454         0.129190
 C         2.164146        -1.422942         0.079698
 C         3.265126        -0.146129         0.077981
 C         4.716898        -0.062401         0.571874
 O         4.470078         0.033658         1.994323
 C         2.974027         0.081072         2.352423
 C         2.451599         0.510231         1.136053
 O         2.337367         0.458692        -0.949571
 H        -0.670019        -0.546215         0.723762
 H        -0.196351         1.128886         0.531295
 H        -0.467985        -0.017808        -1.092418
 H         2.147917        -2.004130         0.983786
 H         1.877640        -1.931004        -0.792433
 H         5.455011        -0.919264         0.266987
 H         5.251504         0.928002         0.177694
 H         2.574779        -0.930244         2.597086
 H         2.922762         0.606887         3.297485
 H         2.517821         1.650556         0.966860
