19
Iteration:  3809
 C        -0.084065        -0.005423        -0.038144
 C         1.442008        -0.075244         0.121478
 C         2.328583        -1.328016        -0.006921
 C         3.177021        -0.093087         0.102098
 C         4.613471         0.003243         0.555584
 O         4.401088        -0.311096         1.978522
 C         3.121949         0.080052         2.501252
 C         2.320082         0.603441         1.215072
 O         2.348661         0.645455        -0.983478
 H        -0.356170        -0.870254        -0.617634
 H        -0.401243        -0.085158         1.033954
 H        -0.757881         0.801830        -0.498758
 H         2.371378        -2.002055         0.840897
 H         2.311143        -1.717051        -0.953141
 H         5.341657        -0.758915         0.212447
 H         4.873007         1.056703         0.248349
 H         2.617588        -0.752183         2.874570
 H         3.150018         0.904374         3.151832
 H         2.253119         1.686873         0.934398
