19
Iteration:  2813charge 0 multiplicity 1
 C        -0.090222         0.033029        -0.060589
 C         1.392291        -0.076535         0.156471
 C         2.276705        -1.329558         0.111218
 C         3.190294        -0.098435         0.084132
 C         4.617644        -0.023479         0.498334
 O         4.425936        -0.144001         1.921462
 C         3.048341         0.122942         2.414968
 C         2.334050         0.618073         1.245148
 O         2.421515         0.435935        -0.927236
 H        -0.577157        -0.523267         0.732898
 H        -0.292937         1.155826         0.067184
 H        -0.254045        -0.306517        -1.056067
 H         2.240955        -2.079872         0.884788
 H         2.185493        -1.696403        -0.914362
 H         5.124614        -0.931741         0.150601
 H         5.153709         0.861424         0.195582
 H         2.535583        -0.904093         2.815247
 H         3.101885         0.912199         3.219224
 H         2.420406         1.722344         1.153603
