19
Iteration:  1068charge 0 multiplicity 1
 C        -0.067842         0.245016        -0.023670
 C         1.342595        -0.186809         0.141579
 C         2.261674        -1.436013        -0.004691
 C         3.230789        -0.155259         0.018503
 C         4.607336        -0.076166         0.577300
 O         4.497751         0.222108         2.036177
 C         3.077857        -0.054658         2.376016
 C         2.347969         0.395098         1.215700
 O         2.342266         0.456160        -0.948694
 H        -0.834417        -0.352999         0.371352
 H        -0.233894         1.224458         0.448303
 H        -0.310149         0.385620        -1.090514
 H         2.210216        -2.081471         0.971242
 H         2.235544        -1.806887        -1.061204
 H         5.227858        -0.982163         0.552327
 H         5.154830         0.837331         0.330128
 H         2.796862        -1.065160         2.527358
 H         2.848136         0.520135         3.252652
 H         2.288839         1.533329         1.241583
