19
Iteration:  4459
 C        -0.186091        -0.011628        -0.029823
 C         1.404861        -0.113938         0.164758
 C         2.423740        -1.308668        -0.030585
 C         3.254213         0.013989         0.102567
 C         4.585311         0.110635         0.568666
 O         4.441244        -0.401035         1.913637
 C         3.040297        -0.029303         2.421531
 C         2.305655         0.592849         1.191320
 O         2.364317         0.694359        -0.875181
 H        -0.666658         0.852930         0.392323
 H        -0.406037         0.081003        -1.106624
 H        -0.579079        -0.981322         0.376296
 H         2.372349        -2.106017         0.878773
 H         2.591201        -1.718870        -1.138106
 H         5.252309        -0.574782         0.086709
 H         4.913611         1.162568         0.608998
 H         2.582319        -1.005335         2.613582
 H         3.142926         0.690919         3.261221
 H         2.398862         1.692603         1.303280
