19
Iteration:  4065
 C        -0.085548         0.098743        -0.055319
 C         1.385860        -0.123150         0.187759
 C         2.356937        -1.333495         0.083234
 C         3.243741        -0.029690         0.054797
 C         4.635992        -0.010544         0.539799
 O         4.426404        -0.138737         1.958472
 C         3.063141        -0.047647         2.412783
 C         2.320799         0.562583         1.181745
 O         2.316013         0.520339        -0.891520
 H        -0.422082        -0.462108        -0.981983
 H        -0.804436         0.053044         0.740285
 H        -0.308934         1.118228        -0.565303
 H         2.499153        -2.068366         0.872710
 H         2.321350        -1.638622        -0.939790
 H         5.204200        -0.826466         0.158946
 H         5.059167         0.988848         0.328889
 H         2.645231        -1.152052         2.581971
 H         2.936123         0.654602         3.247598
 H         2.366894         1.659434         1.185799
