19
Iteration:  1603
 C         0.004054         0.165152        -0.116769
 C         1.370257        -0.113741         0.135717
 C         2.274226        -1.407726         0.075291
 C         3.171524        -0.144810         0.116740
 C         4.661638        -0.170609         0.472463
 O         4.436470         0.212686         1.926503
 C         3.062642        -0.034295         2.449212
 C         2.299537         0.467550         1.216768
 O         2.336251         0.520981        -0.850695
 H        -0.441270        -0.567812         0.559834
 H        -0.263402         1.201800        -0.046282
 H        -0.158109        -0.023343        -1.182066
 H         2.121799        -2.131407         0.922121
 H         2.312770        -1.955807        -0.910449
 H         5.085527        -1.171847         0.392359
 H         5.249847         0.646768        -0.005790
 H         2.955117        -1.120579         2.828872
 H         3.047830         0.529093         3.418147
 H         2.023588         1.564758         1.171668
