19
Iteration:  3523
 C        -0.032187        -0.052627        -0.026418
 C         1.351400        -0.018214         0.176680
 C         2.312862        -1.282643         0.239695
 C         3.191568        -0.098317         0.127474
 C         4.634774        -0.052095         0.512882
 O         4.427291        -0.309946         1.946409
 C         3.014477         0.215305         2.392002
 C         2.408008         0.745428         1.096081
 O         2.334596         0.427221        -0.984731
 H        -0.665820        -0.322504         0.830435
 H        -0.277346         0.963747        -0.283934
 H        -0.157652        -0.519206        -1.057030
 H         2.413317        -2.023626         0.969955
 H         2.191910        -1.867209        -0.718351
 H         5.207965        -0.796883         0.009412
 H         4.969680         0.929669         0.365274
 H         2.442270        -0.615177         2.791148
 H         3.168493         0.878655         3.192837
 H         2.371663         1.842938         0.846782
