19
Iteration:  2129charge 0 multiplicity 1
 C        -0.133933         0.173539        -0.284574
 C         1.294285        -0.110567         0.207930
 C         2.135340        -1.445989         0.189001
 C         3.208933        -0.177517         0.089031
 C         4.630020         0.078716         0.578469
 O         4.596208         0.042535         1.948514
 C         3.169322         0.026812         2.456767
 C         2.403376         0.539854         1.224407
 O         2.293827         0.364763        -0.930730
 H        -0.901559        -0.509161        -0.068904
 H        -0.412740         1.096586         0.223587
 H        -0.160008         0.072527        -1.324457
 H         2.034111        -2.213876         0.968347
 H         2.312653        -1.924420        -0.757808
 H         5.523760        -0.556336         0.200844
 H         4.804223         1.047731         0.166327
 H         2.849560        -1.004204         2.769945
 H         3.207342         0.666808         3.413152
 H         2.441145         1.623749         1.148464
