19
Iteration:  2970
 C        -0.171527         0.144591        -0.036489
 C         1.352851        -0.091838         0.138720
 C         2.240432        -1.379666         0.179943
 C         3.231833        -0.097519         0.157904
 C         4.720617        -0.067250         0.486708
 O         4.508270        -0.103357         1.947348
 C         3.017150         0.141693         2.361217
 C         2.318605         0.537027         1.165804
 O         2.389050         0.460162        -0.959658
 H        -0.777018        -0.764836         0.168563
 H        -0.353025         1.060801         0.439304
 H        -0.212582         0.195265        -1.171092
 H         2.063424        -2.169297         1.003587
 H         2.454306        -1.885940        -0.814515
 H         5.225481        -1.056715         0.232867
 H         5.161978         0.831652         0.172149
 H         2.895013        -0.803310         3.029390
 H         2.885386         0.853089         3.205404
 H         2.208706         1.622468         1.037628
