19
Iteration:  2130charge 0 multiplicity 1
 C        -0.134665         0.179023        -0.283615
 C         1.307011        -0.108878         0.207419
 C         2.141734        -1.446657         0.187548
 C         3.200864        -0.175070         0.093698
 C         4.629651         0.080802         0.578986
 O         4.596049         0.048979         1.942933
 C         3.163123         0.019728         2.464242
 C         2.403285         0.529087         1.221237
 O         2.291580         0.364847        -0.935662
 H        -0.937053        -0.520987        -0.047595
 H        -0.380925         1.078746         0.201716
 H        -0.164548         0.094682        -1.314288
 H         2.018950        -2.215351         0.987643
 H         2.290745        -1.928765        -0.783689
 H         5.517069        -0.563647         0.262795
 H         4.814444         1.008992         0.167374
 H         2.869766        -0.970148         2.787684
 H         3.258950         0.649331         3.419908
 H         2.405681         1.644106         1.123735
