19
Iteration:   432
 C        -0.084278        -0.112088        -0.003936
 C         1.443298        -0.140525         0.174965
 C         2.401720        -1.294127         0.070072
 C         3.243521        -0.005070         0.003641
 C         4.643105         0.021648         0.652340
 O         4.295069        -0.428938         1.990151
 C         3.072944         0.215958         2.365332
 C         2.389280         0.706024         1.082557
 O         2.248339         0.577196        -0.964551
 H        -0.522179        -0.181808         1.044173
 H        -0.453257         0.883426        -0.320063
 H        -0.496844        -0.873927        -0.656391
 H         2.714318        -1.751558         1.040053
 H         2.347049        -1.886528        -0.845695
 H         5.508853        -0.575924         0.257654
 H         5.146940         0.960724         0.567992
 H         2.506094        -0.564953         2.918671
 H         3.377444         0.951028         3.078102
 H         2.279028         1.792874         0.913938
