19
Iteration:  4995
 C        -0.004511         0.032965        -0.049846
 C         1.447747        -0.105397         0.151306
 C         2.332235        -1.244241        -0.046666
 C         3.225420         0.070484         0.061851
 C         4.617182         0.200016         0.616794
 O         4.489842        -0.412892         1.939298
 C         3.034354        -0.125387         2.432606
 C         2.264935         0.452729         1.281732
 O         2.230899         0.670604        -0.953900
 H        -0.331306         1.013920        -0.513652
 H        -0.555808        -0.736836        -0.564301
 H        -0.476869        -0.201531         0.895629
 H         2.568278        -2.040671         0.668487
 H         2.343645        -1.597796        -1.094309
 H         5.386062        -0.335613         0.010610
 H         4.861128         1.176617         0.781970
 H         2.693822        -1.142623         2.757768
 H         3.095494         0.636678         3.246041
 H         2.298701         1.562312         1.223274
