19
Iteration:   866charge 0 multiplicity 1
 C        -0.042832         0.065850        -0.138911
 C         1.434415        -0.112532         0.061455
 C         2.203325        -1.385573        -0.022150
 C         3.172481        -0.111702         0.204300
 C         4.556393        -0.139101         0.536655
 O         4.531629         0.205824         2.008556
 C         3.156236        -0.080132         2.431290
 C         2.366938         0.465476         1.247038
 O         2.249248         0.576940        -0.890725
 H        -0.735489        -0.587961         0.359131
 H        -0.345445         1.158360         0.074482
 H        -0.123511        -0.109999        -1.197622
 H         2.168662        -2.114295         0.806050
 H         2.269363        -1.987407        -0.972644
 H         4.967166        -1.204686         0.369768
 H         5.049463         0.712687         0.032522
 H         2.998891        -1.081718         2.620431
 H         3.164374         0.530726         3.361208
 H         2.354086         1.582423         1.382482
