19
Iteration:  2176
 C        -0.076796         0.168504         0.014721
 C         1.365512        -0.171187         0.105049
 C         2.277399        -1.423994         0.021750
 C         3.231981        -0.210924         0.137474
 C         4.653976        -0.132433         0.580364
 O         4.429610         0.210529         1.947694
 C         3.059703         0.029671         2.400787
 C         2.307945         0.523545         1.177386
 O         2.395023         0.493618        -0.969410
 H        -0.731233        -0.205364         0.848275
 H        -0.127057         1.194748         0.004200
 H        -0.529706        -0.387654        -0.790132
 H         2.355621        -2.116921         0.904034
 H         1.990790        -2.025027        -0.883198
 H         5.002204        -1.133067         0.374436
 H         5.296999         0.565520         0.159726
 H         2.880169        -0.972459         2.665282
 H         2.823020         0.601318         3.311490
 H         2.436764         1.660989         1.052434
