19
Iteration:  3138charge 0 multiplicity 1
 C        -0.154741         0.112126         0.008212
 C         1.426469        -0.118355         0.127680
 C         2.348224        -1.412667         0.115173
 C         3.189802        -0.107629         0.064484
 C         4.603075        -0.007854         0.514538
 O         4.520327        -0.190064         1.989087
 C         3.004154         0.084486         2.434496
 C         2.302089         0.584907         1.115333
 O         2.382679         0.507693        -0.976101
 H        -0.608795         0.125676         0.966375
 H        -0.172702         1.201133        -0.285397
 H        -0.618855        -0.529586        -0.642819
 H         2.307918        -1.765273         1.173190
 H         2.290058        -2.015720        -0.804789
 H         5.366754        -0.674403         0.045649
 H         4.933317         1.016082         0.350821
 H         2.415064        -0.815480         2.811784
 H         3.097120         0.896935         3.238201
 H         2.342943         1.685599         0.929236
