19
Iteration:  1206charge 0 multiplicity 1
 C         0.007969         0.087213        -0.076174
 C         1.376745        -0.200164         0.094547
 C         2.289313        -1.399786         0.057935
 C         3.188110        -0.051742         0.124611
 C         4.556183         0.121940         0.557453
 O         4.361830        -0.324969         1.926582
 C         3.151682         0.201299         2.482392
 C         2.314128         0.562680         1.196998
 O         2.351181         0.485756        -0.969309
 H        -0.252574        -0.069055         1.041575
 H        -0.072136         1.047082        -0.294317
 H        -0.458004        -0.599936        -0.796699
 H         2.367920        -1.988597         0.947130
 H         2.358475        -1.837738        -0.941702
 H         5.463601        -0.452676         0.210103
 H         4.747669         1.209292         0.465351
 H         2.705301        -0.601305         3.180325
 H         3.405736         1.089938         3.127181
 H         2.135853         1.596123         1.038380
