19
Iteration:    73
 C        -0.023331         0.152124        -0.126759
 C         1.404582        -0.216524         0.232428
 C         2.242707        -1.381176         0.138262
 C         3.179419        -0.110304         0.105752
 C         4.697021        -0.085068         0.555770
 O         4.468078         0.235342         1.946729
 C         3.060227        -0.146190         2.330978
 C         2.232232         0.536176         1.206022
 O         2.368512         0.484322        -0.941143
 H        -0.808845        -0.294764         0.746317
 H        -0.048192         1.267749        -0.092313
 H        -0.319225        -0.200451        -1.139209
 H         2.265285        -2.156776         0.951071
 H         2.097662        -1.799651        -0.864422
 H         5.183118        -1.101296         0.475136
 H         5.059578         0.909857         0.221551
 H         3.012027        -1.272287         2.322035
 H         3.045854         0.357972         3.290526
 H         2.040583         1.632310         1.243806
