19
Iteration:  4957charge 0 multiplicity 1
 C        -0.124325         0.049190        -0.046981
 C         1.380895        -0.082132         0.117193
 C         2.434397        -1.258163        -0.018582
 C         3.187943        -0.003763         0.068425
 C         4.645969         0.155648         0.543836
 O         4.441668        -0.251231         1.942981
 C         2.998214        -0.205930         2.409747
 C         2.320289         0.392320         1.215091
 O         2.310555         0.722665        -0.844860
 H        -0.358976         0.894267        -0.643757
 H        -0.369422        -0.906312        -0.512563
 H        -0.380694         0.289365         1.001412
 H         2.632497        -2.064857         0.725691
 H         2.191304        -1.702755        -1.027010
 H         5.288242        -0.583383         0.073182
 H         5.090902         1.231319         0.397968
 H         2.746109        -1.238134         2.687385
 H         3.002312         0.334042         3.390695
 H         2.422711         1.476772         1.424461
