19
Iteration:  4878charge 0 multiplicity 1
 C        -0.033070         0.112383        -0.064666
 C         1.442220        -0.101274         0.108380
 C         2.297282        -1.358522        -0.167276
 C         3.162250        -0.031473         0.106713
 C         4.520296         0.037789         0.594254
 O         4.505808         0.030500         1.984001
 C         3.103056        -0.257746         2.398672
 C         2.287761         0.424144         1.300384
 O         2.276715         0.653736        -0.808737
 H         0.001957         1.176626         0.111236
 H        -0.174134        -0.093132        -1.140044
 H        -0.539931        -0.677696         0.521101
 H         2.304839        -2.145303         0.608738
 H         2.426108        -1.717534        -1.146515
 H         4.935476        -0.864114         0.105936
 H         5.091625         0.972739         0.184927
 H         3.009933        -1.333160         2.490826
 H         3.121519         0.214611         3.318655
 H         2.364318         1.463226         1.384262
