19
Iteration:  1896
 C        -0.111105         0.210536        -0.033997
 C         1.378123        -0.099672         0.179136
 C         2.258941        -1.435610         0.059527
 C         3.232139        -0.220510         0.060738
 C         4.697166        -0.198740         0.539591
 O         4.435946         0.312733         2.012325
 C         3.073864        -0.034517         2.390774
 C         2.391383         0.483278         1.175281
 O         2.306546         0.479668        -0.949535
 H        -0.704335        -0.710380         0.202264
 H        -0.557491         0.937655         0.654193
 H        -0.325657         0.308765        -1.111280
 H         2.485749        -2.176750         0.811644
 H         2.243116        -1.841438        -0.945367
 H         5.058007        -1.274073         0.299214
 H         5.484056         0.501495         0.220623
 H         2.687782        -1.088950         2.491332
 H         2.756733         0.519135         3.312851
 H         2.372404         1.540161         1.161843
