19
Iteration:  3734
 C        -0.028346         0.081650        -0.089922
 C         1.427789        -0.020255         0.175688
 C         2.183314        -1.439885         0.136607
 C         3.216590        -0.150955         0.082066
 C         4.680100         0.121657         0.495257
 O         4.452980        -0.177340         1.933632
 C         3.047382        -0.020297         2.419393
 C         2.289748         0.607109         1.172613
 O         2.389925         0.508896        -0.895655
 H        -0.092867         0.589191        -1.116738
 H        -0.674530        -0.906272        -0.050501
 H        -0.683089         0.665670         0.660967
 H         2.138054        -2.037776         1.098978
 H         2.131293        -1.999353        -0.788524
 H         5.316882        -0.586724        -0.057150
 H         4.874171         1.264353         0.314225
 H         2.677450        -0.979930         2.743503
 H         3.092577         0.651139         3.301874
 H         2.365014         1.719178         1.138469
