19
Iteration:  4063
 C        -0.075313         0.100850        -0.047886
 C         1.378029        -0.123381         0.185116
 C         2.361411        -1.351974         0.099466
 C         3.254910        -0.025452         0.072845
 C         4.641190        -0.008852         0.539803
 O         4.415366        -0.125601         1.955532
 C         3.064877        -0.062805         2.405565
 C         2.318315         0.554392         1.164119
 O         2.317949         0.537216        -0.899513
 H        -0.461891        -0.403408        -1.032236
 H        -0.868910         0.041180         0.732597
 H        -0.278905         1.109243        -0.483726
 H         2.413820        -2.072966         0.875689
 H         2.363408        -1.749077        -0.947394
 H         5.172004        -0.863022         0.126060
 H         5.020821         0.987013         0.361495
 H         2.645732        -1.116497         2.601143
 H         3.024451         0.655158         3.176912
 H         2.342536         1.667912         1.222580
