19
Iteration:  2072charge 0 multiplicity 1
 C        -0.110519        -0.046835        -0.008032
 C         1.368662        -0.118944         0.165696
 C         2.361891        -1.322081         0.125508
 C         3.260840         0.008207         0.052756
 C         4.631651        -0.068584         0.565822
 O         4.456388        -0.220623         2.010412
 C         3.074726         0.163972         2.441430
 C         2.285376         0.649320         1.079735
 O         2.330714         0.504442        -0.989514
 H        -0.544378        -0.577064         0.756737
 H        -0.459479         1.044222         0.037381
 H        -0.456930        -0.198082        -1.043167
 H         2.338805        -2.021678         0.941946
 H         2.517564        -1.887855        -0.795408
 H         4.957727        -1.044498         0.132511
 H         5.211338         0.756850         0.180721
 H         2.379990        -0.676941         2.796112
 H         3.150466         1.022421         3.110548
 H         2.267748         1.694719         1.026883
