19
Iteration:  1730charge 0 multiplicity 1
 C        -0.120229        -0.031068         0.007128
 C         1.400976        -0.152941         0.102299
 C         2.288798        -1.317891         0.044293
 C         3.267679        -0.121905         0.082533
 C         4.644706         0.092088         0.634862
 O         4.375355        -0.314428         2.027315
 C         3.050934         0.165897         2.418180
 C         2.450581         0.625699         1.083421
 O         2.261385         0.571994        -1.004608
 H        -0.472103         0.020054         1.129530
 H        -0.314455         0.963064        -0.351651
 H        -0.542689        -0.909252        -0.479257
 H         2.481683        -1.913040         0.934372
 H         2.442855        -1.890481        -0.871219
 H         5.360012        -0.699826         0.159811
 H         5.123275         1.038896         0.655222
 H         2.531473        -0.573550         2.885650
 H         3.282711         1.007550         3.113572
 H         2.536306         1.547054         0.537685
