19
Iteration:  4582
 C        -0.136041         0.073453        -0.084375
 C         1.403086        -0.103609         0.067233
 C         2.284357        -1.290800        -0.109756
 C         3.179851        -0.146959         0.145430
 C         4.673822         0.064090         0.554116
 O         4.490935         0.037641         1.984525
 C         3.063678        -0.265835         2.367540
 C         2.304914         0.407316         1.276379
 O         2.364736         0.687738        -0.762881
 H        -0.325491         1.177510        -0.324691
 H        -0.570215        -0.526206        -0.890542
 H        -0.510862         0.065903         0.914559
 H         2.231807        -2.093107         0.691286
 H         2.180042        -1.715500        -1.273806
 H         5.115154        -0.800013         0.120037
 H         5.125029         0.972361         0.172674
 H         2.925162        -1.395804         2.299851
 H         2.999031         0.205094         3.320707
 H         2.283981         1.497329         1.386546
