19
Iteration:  1644charge 0 multiplicity 1
 C        -0.125978         0.149282        -0.212084
 C         1.407028        -0.114724         0.046763
 C         2.119882        -1.402217         0.070507
 C         3.185043        -0.182384         0.108676
 C         4.582839        -0.024084         0.501499
 O         4.558418         0.106718         2.067252
 C         3.238184         0.021678         2.548315
 C         2.416098         0.456303         1.240979
 O         2.272614         0.461149        -0.953102
 H        -0.820127        -0.784728         0.074451
 H        -0.679108         0.967351         0.179909
 H        -0.440772         0.221562        -1.260899
 H         2.156767        -2.140465         0.883936
 H         2.241964        -1.874854        -0.917184
 H         5.432177        -0.771124         0.157858
 H         4.986864         0.931296         0.274157
 H         2.918079        -0.998026         3.048889
 H         3.002147         0.774288         3.403924
 H         2.457741         1.582056         1.228201
