19
Iteration:  2783charge 0 multiplicity 1
 C        -0.083753         0.076623        -0.213404
 C         1.317352        -0.034941         0.098592
 C         2.249451        -1.300360         0.233211
 C         3.188736        -0.120405         0.055777
 C         4.657330        -0.039518         0.561576
 O         4.561956        -0.089271         2.002842
 C         3.182534         0.044450         2.417698
 C         2.372844         0.516995         1.217569
 O         2.179117         0.492047        -0.947988
 H        -0.734790        -0.812192        -0.004993
 H        -0.489358         0.971407         0.239417
 H        -0.012685         0.106620        -1.350299
 H         2.294986        -1.855007         1.254861
 H         2.176727        -2.016992        -0.625304
 H         5.081635        -1.035924         0.198846
 H         5.177292         0.829332         0.211065
 H         2.807548        -0.825470         2.834775
 H         3.054089         0.725348         3.265896
 H         2.596619         1.592988         1.199417
