19
Iteration:  1990
 C        -0.118659         0.053674        -0.065544
 C         1.434725        -0.111985         0.133053
 C         2.357597        -1.304220         0.194737
 C         3.181787         0.022990         0.120148
 C         4.623165         0.047713         0.550724
 O         4.433674        -0.242217         1.875222
 C         2.994756         0.057104         2.424425
 C         2.336027         0.599329         1.210839
 O         2.341806         0.407296        -1.027690
 H        -0.541636         0.188773         1.001296
 H        -0.109960         0.984458        -0.538051
 H        -0.444654        -0.840051        -0.532713
 H         2.470098        -1.864574         1.163022
 H         2.397414        -1.845863        -0.757834
 H         5.315119        -0.654819         0.060954
 H         5.025940         1.095297         0.277305
 H         2.606777        -0.792452         2.914689
 H         3.203393         0.796975         3.232941
 H         2.378267         1.742892         1.341171
