19
Iteration:  1246
 C        -0.044151        -0.005858         0.022855
 C         1.403275        -0.128305         0.205859
 C         2.357208        -1.280353         0.139506
 C         3.230949        -0.059826        -0.011500
 C         4.659282         0.000072         0.593105
 O         4.390247        -0.272227         2.025933
 C         3.042597         0.068729         2.387044
 C         2.371905         0.725985         1.088276
 O         2.265639         0.480914        -1.042468
 H        -0.632279        -0.623088         0.619327
 H        -0.495429         1.111016         0.279729
 H        -0.405019        -0.182529        -1.029687
 H         2.498096        -1.884238         1.046632
 H         2.347904        -1.878062        -0.791918
 H         5.383533        -0.735700         0.283274
 H         5.119043         0.999318         0.486154
 H         2.484111        -0.783594         2.672019
 H         3.049061         0.777300         3.237203
 H         2.327853         1.844239         0.909161
