19
Iteration:  3623charge 0 multiplicity 1
 C        -0.140046         0.147433        -0.040505
 C         1.405690        -0.098282        -0.026105
 C         2.196680        -1.406176         0.122300
 C         3.177069        -0.160749         0.119546
 C         4.624666        -0.096941         0.568457
 O         4.533508         0.115489         2.010659
 C         3.106262        -0.005699         2.397735
 C         2.338077         0.535852         1.214323
 O         2.365060         0.488892        -0.927555
 H        -0.386624         1.070216         0.485780
 H        -0.523823         0.215985        -1.136133
 H        -0.598911        -0.856248         0.436664
 H         2.165841        -2.121202         1.010237
 H         2.173573        -1.979498        -0.788486
 H         5.117169        -1.012040         0.321050
 H         5.186545         0.785843         0.034947
 H         2.981444        -1.084108         2.350331
 H         2.946656         0.536197         3.272397
 H         2.488578         1.634605         0.970390
