19
Iteration:  1160charge 0 multiplicity 1
 C        -0.104002        -0.004131        -0.184220
 C         1.399586        -0.056219         0.035724
 C         2.300125        -1.342001         0.178594
 C         3.162110        -0.040003         0.096085
 C         4.645928        -0.035477         0.560456
 O         4.527035        -0.112040         2.014952
 C         3.082941        -0.017741         2.400379
 C         2.411216         0.627083         1.247642
 O         2.234181         0.523694        -0.932691
 H        -0.571865        -0.093021         0.751764
 H        -0.390813         0.931966        -0.567980
 H        -0.465544        -0.768397        -0.869115
 H         2.145685        -1.826121         1.108505
 H         2.259181        -1.831545        -0.781604
 H         4.989901        -0.938134         0.044626
 H         5.250506         0.841451         0.289016
 H         2.691586        -0.956917         2.709266
 H         3.180710         0.608061         3.301067
 H         2.383184         1.706893         1.236340
