19
Iteration:  1042charge 0 multiplicity 1
 C        -0.015300         0.156976        -0.120319
 C         1.398826        -0.064701         0.106644
 C         2.259844        -1.458961         0.119126
 C         3.168897        -0.150390         0.161001
 C         4.591256        -0.055993         0.498442
 O         4.461524         0.118616         1.906727
 C         3.057000        -0.080698         2.435205
 C         2.347134         0.507771         1.274817
 O         2.355264         0.519630        -0.929438
 H        -0.700016        -0.586301         0.508748
 H        -0.378622         1.145637         0.057787
 H        -0.241736        -0.071385        -1.181959
 H         2.221807        -2.071692         0.930917
 H         2.269661        -1.849319        -0.859958
 H         5.251949        -0.884259         0.252467
 H         5.041241         0.901998         0.275847
 H         2.668816        -1.079584         2.521374
 H         3.065138         0.333270         3.456080
 H         2.467581         1.545875         1.255532
