19
Iteration:  3810
 C        -0.086971        -0.001171        -0.042662
 C         1.435909        -0.067548         0.124632
 C         2.323034        -1.327538        -0.003650
 C         3.179592        -0.089146         0.096307
 C         4.610268         0.003529         0.559935
 O         4.404807        -0.312682         1.984434
 C         3.119430         0.080969         2.498292
 C         2.325998         0.595269         1.218980
 O         2.354111         0.644243        -0.992221
 H        -0.409222        -0.915768        -0.597765
 H        -0.407003        -0.088499         1.037659
 H        -0.766173         0.759723        -0.485404
 H         2.383919        -2.007501         0.843819
 H         2.314909        -1.741062        -0.972530
 H         5.333611        -0.736959         0.191324
 H         4.898020         1.086990         0.240860
 H         2.640063        -0.736225         2.859763
 H         3.150093         0.894596         3.157887
 H         2.259313         1.681312         0.979391
