19
Iteration:  2974charge 0 multiplicity 1
 C        -0.154731         0.135373        -0.035968
 C         1.360047        -0.130054         0.124736
 C         2.228044        -1.390766         0.167372
 C         3.217521        -0.095503         0.133980
 C         4.696550        -0.059639         0.499693
 O         4.519342        -0.079130         1.966034
 C         3.005600         0.061544         2.386892
 C         2.329165         0.617647         1.160384
 O         2.401293         0.439291        -0.980307
 H        -0.886412        -0.623336         0.260318
 H        -0.446630         1.113836         0.632529
 H        -0.291806         0.264440        -1.073653
 H         2.131922        -2.078825         1.005223
 H         2.405092        -1.857190        -0.833935
 H         5.179257        -0.932173         0.258137
 H         5.367265         0.799218         0.204819
 H         2.861487        -0.855460         3.020494
 H         3.001493         0.896255         3.161643
 H         2.190761         1.680329         0.898088
