19
Iteration:   513charge 0 multiplicity 1
 C        -0.047717         0.059011        -0.138111
 C         1.461204        -0.083597         0.140146
 C         2.218704        -1.360510         0.151709
 C         3.196058        -0.079341         0.086567
 C         4.604501        -0.052055         0.514517
 O         4.463614         0.094842         1.999437
 C         3.111140        -0.074415         2.373741
 C         2.359483         0.593701         1.255246
 O         2.292840         0.462505        -0.926629
 H        -0.671443        -0.715314         0.333474
 H        -0.463868         1.082539         0.017434
 H        -0.200101        -0.201735        -1.228373
 H         2.118256        -2.128492         0.932737
 H         2.193135        -1.803854        -0.871765
 H         5.121292        -0.954192         0.290334
 H         4.998537         0.821772         0.216740
 H         2.912230        -1.137596         2.348573
 H         3.020908         0.235616         3.406113
 H         2.453984         1.696648         1.340945
