19
Iteration:  2906charge 0 multiplicity 1
 C        -0.150373         0.024418        -0.111555
 C         1.366859        -0.074474         0.092025
 C         2.318077        -1.370564         0.261942
 C         3.193237        -0.074026         0.114468
 C         4.650549        -0.010365         0.528266
 O         4.465770        -0.266300         1.912573
 C         3.090053         0.116141         2.368764
 C         2.314062         0.638806         1.178447
 O         2.387703         0.535756        -0.925865
 H        -0.876449         0.069450         0.729968
 H        -0.435240         1.066215        -0.475119
 H        -0.536611        -0.703475        -0.880754
 H         2.255089        -1.954351         1.237344
 H         2.367508        -1.959249        -0.701184
 H         5.317005        -0.777815         0.160617
 H         5.110468         0.977938         0.290607
 H         2.702262        -0.880348         2.909836
 H         3.135093         0.938548         3.127202
 H         2.344587         1.743318         1.175958
