19
Iteration:  4158charge 0 multiplicity 1
 C        -0.063243         0.069772        -0.072402
 C         1.407355        -0.080246         0.083356
 C         2.419298        -1.378024         0.086141
 C         3.245142         0.043552         0.026113
 C         4.671951         0.109078         0.558867
 O         4.422077        -0.333781         1.980016
 C         2.989342        -0.050063         2.439902
 C         2.339089         0.556766         1.234765
 O         2.222024         0.617237        -0.946407
 H        -0.634103        -0.754623         0.399638
 H        -0.500989         1.058521         0.156406
 H        -0.329340        -0.114163        -1.061829
 H         2.455952        -2.002523         0.993477
 H         2.234289        -1.987050        -0.879110
 H         5.415332        -0.718713         0.235819
 H         5.172368         1.122805         0.569490
 H         2.783294        -0.994659         2.814640
 H         3.167032         0.772467         3.264126
 H         2.244654         1.666904         1.238372
