19
Iteration:  4277
 C        -0.077944         0.054380        -0.068453
 C         1.326116        -0.127906         0.147072
 C         2.314477        -1.328099        -0.103797
 C         3.163318        -0.037106         0.099796
 C         4.583254         0.009328         0.529118
 O         4.467957        -0.015170         1.999371
 C         3.081183        -0.221193         2.407706
 C         2.331479         0.483928         1.324887
 O         2.436371         0.709891        -0.879466
 H        -0.532673         0.936643         0.451172
 H        -0.167030         0.033358        -1.173325
 H        -0.605071        -0.770965         0.357524
 H         2.101183        -2.055982         0.630200
 H         2.178306        -1.911998        -1.085260
 H         5.160446        -0.904347         0.274468
 H         5.091671         0.870008         0.237672
 H         2.746402        -1.298968         2.393499
 H         2.844902         0.285764         3.417713
 H         2.480205         1.550620         1.100808
