19
Iteration:  2767charge 0 multiplicity 1
 C        -0.149568         0.114508        -0.258472
 C         1.394304        -0.072399         0.198691
 C         2.156326        -1.386123         0.120997
 C         3.188123        -0.107694         0.113682
 C         4.659317        -0.079765         0.488185
 O         4.532434        -0.018405         1.950588
 C         3.160167         0.025576         2.539878
 C         2.429043         0.580785         1.262186
 O         2.278988         0.447917        -0.973047
 H        -0.571958        -0.826685         0.027445
 H        -0.667099         0.890398         0.433953
 H        -0.181494         0.276088        -1.315160
 H         2.146750        -1.905885         1.011855
 H         2.040366        -1.911679        -0.823941
 H         5.299635        -0.881624         0.279700
 H         5.046998         0.940800         0.194286
 H         2.932771        -1.047897         3.103260
 H         3.178938         0.879805         3.275458
 H         2.167938         1.652152         1.142400
