19
Iteration:  2137
 C        -0.128865         0.178672        -0.247377
 C         1.390857        -0.129809         0.171483
 C         2.190363        -1.447346         0.163212
 C         3.139570        -0.185506         0.145347
 C         4.627934         0.069181         0.538429
 O         4.573078         0.086791         1.948136
 C         3.148154         0.009478         2.496549
 C         2.380452         0.494569         1.213036
 O         2.283577         0.371865        -0.956708
 H        -0.862650        -0.487623         0.154879
 H        -0.351619         1.298462         0.076542
 H        -0.125746         0.324559        -1.388499
 H         2.049622        -2.055744         1.039127
 H         2.034158        -1.935563        -0.793080
 H         5.405508        -0.731667         0.440081
 H         4.985508         1.125050         0.090680
 H         2.954500        -1.080584         2.892256
 H         3.369432         0.634131         3.355916
 H         2.279618         1.532447         1.055844
