19
Iteration:   744charge 0 multiplicity 1
 C        -0.050676        -0.095831         0.042358
 C         1.485005        -0.029831         0.020805
 C         2.296194        -1.286619         0.145324
 C         3.252757        -0.046366         0.055582
 C         4.620644         0.073496         0.574346
 O         4.417964        -0.301032         1.954904
 C         2.984886         0.046992         2.450922
 C         2.382317         0.664337         1.181334
 O         2.300422         0.535879        -1.052709
 H        -0.366497        -0.505485         0.878223
 H        -0.654604         0.930901         0.144954
 H        -0.490551        -0.668687        -0.787865
 H         2.304238        -1.779980         1.143410
 H         2.228526        -1.895074        -0.783095
 H         5.106036        -0.903996         0.254718
 H         5.092172         1.026362         0.396287
 H         2.588116        -0.800091         2.950900
 H         3.099130         0.912936         3.151461
 H         2.373309         1.844175         1.110448
