19
Iteration:  1220charge 0 multiplicity 1
 C        -0.085699         0.078372         0.036509
 C         1.466364        -0.143409         0.021871
 C         2.420181        -1.380926         0.104249
 C         3.207784        -0.075541         0.093267
 C         4.634812         0.124908         0.574512
 O         4.369963        -0.342010         1.912730
 C         3.086963         0.185505         2.458051
 C         2.224190         0.580093         1.180497
 O         2.343461         0.477495        -0.993268
 H        -0.791202        -0.233789         0.944966
 H        -0.252370         1.245870        -0.122240
 H        -0.672897        -0.314604        -0.827868
 H         2.225803        -2.008563         1.035885
 H         2.529963        -2.082594        -0.741200
 H         5.285211        -0.645643         0.102023
 H         5.127725         1.143820         0.527732
 H         2.704586        -0.738420         3.194440
 H         3.212076         1.159918         3.039100
 H         2.186722         1.702010         1.052930
