19
Iteration:   611charge 0 multiplicity 1
 C        -0.177921         0.137984        -0.009097
 C         1.430245        -0.105511         0.088960
 C         2.300869        -1.377770         0.069592
 C         3.214411        -0.188185         0.077996
 C         4.609946        -0.030160         0.569391
 O         4.504210         0.189910         2.009859
 C         3.022420        -0.104954         2.377763
 C         2.403528         0.455643         1.147662
 O         2.339138         0.500627        -0.934426
 H        -0.744933        -0.175536         0.807591
 H        -0.251220         1.261812        -0.141527
 H        -0.715735        -0.249792        -0.922717
 H         2.289248        -1.987019         0.981583
 H         2.175265        -2.022220        -0.813952
 H         5.272701        -0.957491         0.433787
 H         5.102646         0.800831         0.184327
 H         2.911629        -1.196635         2.395291
 H         2.852349         0.302727         3.407206
 H         2.401822         1.575384         1.146370
