19
Iteration:  1439
 C        -0.118509        -0.028261        -0.078537
 C         1.391028        -0.100009         0.054814
 C         2.338314        -1.296933         0.050857
 C         3.153645        -0.069514         0.111368
 C         4.638622        -0.129150         0.579221
 O         4.533218        -0.208467         2.013841
 C         3.057029         0.194365         2.473079
 C         2.346160         0.689251         1.166633
 O         2.286386         0.484178        -0.976747
 H        -0.377791        -0.903681         0.707608
 H        -0.637096         0.921402         0.346801
 H        -0.476828        -0.145825        -1.118628
 H         2.269687        -1.952845         0.967048
 H         2.412501        -1.601850        -1.012188
 H         5.176965        -1.013096         0.139801
 H         5.080502         0.926361         0.442152
 H         2.570679        -0.621762         2.941646
 H         3.294842         0.900364         3.305489
 H         2.323944         1.794933         0.947719
