19
Iteration:  1104
 C        -0.091760         0.125779         0.005667
 C         1.384212        -0.106043         0.027059
 C         2.198118        -1.375705        -0.069801
 C         3.187827        -0.253521         0.110397
 C         4.607743        -0.167989         0.619845
 O         4.499143         0.223616         2.079881
 C         3.082806         0.051019         2.418785
 C         2.416960         0.409501         1.172553
 O         2.336736         0.552804        -0.954904
 H        -0.486882        -0.618555         0.578136
 H        -0.298342         1.174031         0.424180
 H        -0.427778         0.043785        -0.987707
 H         2.118040        -2.237160         0.660181
 H         2.156200        -1.918810        -1.047556
 H         5.204674        -1.050338         0.323991
 H         5.073033         0.706150         0.134512
 H         2.938004        -1.021492         2.609800
 H         2.952772         0.608183         3.348753
 H         2.392241         1.542387         1.097206
