19
Iteration:  3336charge 0 multiplicity 1
 C        -0.118027         0.127909         0.029773
 C         1.417623        -0.135029        -0.009633
 C         2.247625        -1.398184         0.020092
 C         3.157889        -0.095050         0.143047
 C         4.648626        -0.138702         0.613645
 O         4.489016         0.061773         2.060204
 C         3.133401         0.044917         2.393062
 C         2.364109         0.603434         1.169526
 O         2.292492         0.462007        -1.036767
 H        -0.508759         0.149996         1.054218
 H        -0.320104         1.012955        -0.459177
 H        -0.597163        -0.601003        -0.634061
 H         2.310194        -1.906955         1.042821
 H         2.296783        -2.123269        -0.790907
 H         5.132778        -1.151012         0.501205
 H         5.094319         0.676985         0.020772
 H         2.917542        -0.917199         2.560938
 H         3.172302         0.499520         3.383659
 H         2.208519         1.710710         1.180023
