19
Iteration:  1435charge 0 multiplicity 1
 C        -0.121495        -0.012216        -0.075157
 C         1.362290        -0.098846         0.063869
 C         2.339216        -1.284209         0.005363
 C         3.149806        -0.045342         0.123239
 C         4.648017        -0.123734         0.555746
 O         4.531246        -0.186845         2.062426
 C         3.093789         0.181535         2.498630
 C         2.384560         0.656656         1.154208
 O         2.244039         0.471921        -0.995484
 H        -0.307446        -0.870955         0.690898
 H        -0.465271         0.886809         0.278786
 H        -0.495199        -0.131951        -1.082731
 H         2.298733        -1.872976         0.925833
 H         2.379779        -1.755684        -1.002731
 H         5.269985        -1.031461         0.269249
 H         5.168051         0.798065         0.388761
 H         2.414108        -0.714006         2.888560
 H         3.142566         0.971473         3.293214
 H         2.341055         1.708069         0.919648
