19
Iteration:  2283charge 0 multiplicity 1
 C        -0.062734         0.140796        -0.212246
 C         1.370573        -0.133749         0.099123
 C         2.231998        -1.381675         0.267470
 C         3.211348        -0.186371         0.171533
 C         4.593928         0.217460         0.512010
 O         4.484913        -0.246105         1.932439
 C         3.098181         0.141327         2.384130
 C         2.391629         0.595489         1.188173
 O         2.260226         0.376931        -0.939993
 H        -0.547902        -0.426338         0.631094
 H        -0.126312         1.215886        -0.337503
 H        -0.239532        -0.285943        -1.154355
 H         2.093170        -1.760301         1.251556
 H         2.287443        -2.154018        -0.472566
 H         5.337190        -0.559498         0.204652
 H         5.009753         1.174664         0.596643
 H         2.825475        -0.774203         2.887914
 H         3.240989         0.960347         3.165694
 H         2.597925         1.622073         0.974391
