19
Iteration:   626
 C         0.003421         0.124699        -0.039774
 C         1.397068        -0.029830         0.084475
 C         2.224540        -1.430670         0.137264
 C         3.203650        -0.188146         0.089340
 C         4.652201         0.011876         0.506290
 O         4.441237         0.078956         2.043306
 C         3.086708        -0.116484         2.330627
 C         2.297125         0.575543         1.207270
 O         2.327700         0.493183        -0.985985
 H        -0.261380        -0.397703         0.918175
 H        -0.508738         1.144184         0.047027
 H        -0.272294        -0.543200        -0.853753
 H         2.186106        -2.056705         1.047077
 H         2.275751        -2.025473        -0.774879
 H         5.292462        -0.811688         0.342070
 H         4.872723         1.059264         0.116483
 H         2.875654        -1.154663         2.489160
 H         2.898760         0.403026         3.346136
 H         2.386426         1.708546         1.168691
