19
Iteration:  1137charge 0 multiplicity 1
 C        -0.079603        -0.005744        -0.094907
 C         1.386465        -0.096054         0.217309
 C         2.272072        -1.282528         0.115782
 C         3.156448        -0.064321         0.108557
 C         4.607814        -0.197891         0.514030
 O         4.441933         0.038909         1.954987
 C         3.082902        -0.010986         2.415409
 C         2.293180         0.559696         1.253835
 O         2.461562         0.564979        -1.009355
 H        -0.600125        -0.340634         0.693542
 H        -0.442563         1.045575        -0.247807
 H        -0.346647        -0.566007        -0.948120
 H         2.348562        -1.871967         1.031893
 H         2.233220        -1.587028        -0.933678
 H         5.027735        -1.164442         0.194595
 H         5.108236         0.662403         0.068289
 H         2.868397        -1.004929         2.598626
 H         2.988420         0.515835         3.364449
 H         2.157372         1.666840         1.240994
