19
Iteration:  2348charge 0 multiplicity 1
 C        -0.084379        -0.015949        -0.024200
 C         1.451485        -0.070619         0.110406
 C         2.343089        -1.377252         0.097669
 C         3.216617        -0.147032         0.027996
 C         4.633261        -0.207657         0.614609
 O         4.443403        -0.087160         2.014214
 C         3.010055         0.221965         2.391892
 C         2.364389         0.700252         1.123265
 O         2.313783         0.533527        -0.963294
 H        -0.451739        -0.919091         0.616998
 H        -0.535192         0.881846         0.427330
 H        -0.726529        -0.056505        -0.874929
 H         2.486338        -1.814611         1.052220
 H         2.228403        -2.083755        -0.708224
 H         4.815731        -1.164732         0.317826
 H         5.197790         0.585094         0.034150
 H         2.582469        -0.655857         2.792953
 H         2.992922         0.983807         3.138652
 H         2.510030         1.698336         0.839268
