19
Iteration:  3071charge 0 multiplicity 1
 C        -0.060953         0.094389        -0.170978
 C         1.332300        -0.119064         0.120864
 C         2.216721        -1.418705         0.111405
 C         3.207662        -0.126097         0.091542
 C         4.653206        -0.064660         0.492399
 O         4.504925        -0.029958         1.960826
 C         3.132224         0.039398         2.461903
 C         2.344805         0.589057         1.216005
 O         2.287688         0.537997        -0.853560
 H        -0.643384         0.264442         0.692335
 H        -0.179792         1.078892        -0.693905
 H        -0.332750        -0.689722        -0.774711
 H         2.048175        -2.013025         1.050689
 H         2.223563        -2.015063        -0.877271
 H         5.144222        -1.024505         0.273839
 H         5.285218         0.670384         0.081814
 H         2.765160        -0.976231         2.812289
 H         3.289526         0.816943         3.254601
 H         2.231446         1.666968         1.142572
