19
Iteration:  4101charge 0 multiplicity 1
 C        -0.129663        -0.017441        -0.085187
 C         1.395419        -0.059174        -0.001285
 C         2.239827        -1.238963         0.061918
 C         3.200733        -0.084805         0.090797
 C         4.657123         0.025820         0.608016
 O         4.470505        -0.247060         2.002834
 C         3.131674         0.004747         2.420762
 C         2.371038         0.502616         1.178449
 O         2.294484         0.650545        -0.919162
 H        -0.416833        -1.022307        -0.174607
 H        -0.611740         0.265776         0.857058
 H        -0.389294         0.624730        -0.934127
 H         2.174512        -1.988243         0.899922
 H         2.236163        -1.883687        -0.845428
 H         5.441151        -0.746943         0.366775
 H         5.029269         1.079862         0.485487
 H         2.912455        -0.966393         2.937588
 H         3.056777         0.833379         3.260263
 H         2.358558         1.592393         1.075721
