19
Iteration:   286charge 0 multiplicity 1
 C        -0.132173         0.074677        -0.124738
 C         1.404118        -0.080695         0.195776
 C         2.179438        -1.362556         0.068878
 C         3.213912        -0.237543         0.062519
 C         4.641317        -0.116847         0.591118
 O         4.485822         0.278368         2.035446
 C         3.118197        -0.088320         2.335004
 C         2.402060         0.542920         1.167196
 O         2.322803         0.503589        -0.897977
 H        -0.564304        -0.562195         0.626097
 H        -0.516226         1.168476         0.035288
 H        -0.488120        -0.303725        -1.161438
 H         2.161821        -2.123602         0.788058
 H         2.157340        -1.815558        -0.889015
 H         5.096842        -1.109436         0.523617
 H         5.300507         0.669241         0.153946
 H         2.965771        -1.107547         2.191129
 H         2.852679         0.104564         3.409741
 H         2.600133         1.640994         1.131747
