19
Iteration:  3534charge 0 multiplicity 1
 C        -0.121084        -0.010331        -0.078218
 C         1.449437        -0.061217         0.212615
 C         2.211465        -1.348065         0.255026
 C         3.196888        -0.034153         0.049160
 C         4.664260        -0.002133         0.539724
 O         4.483753        -0.321074         1.970359
 C         3.042314         0.196362         2.380172
 C         2.366978         0.731317         1.171550
 O         2.342811         0.432054        -1.060005
 H        -0.753816        -0.237763         0.796521
 H        -0.366158         0.946578        -0.498174
 H        -0.366442        -0.885948        -0.770987
 H         2.144855        -1.846071         1.176405
 H         2.168032        -1.907847        -0.710412
 H         5.367582        -0.703747         0.149571
 H         5.112992         0.956015         0.446596
 H         2.572511        -0.694964         2.741609
 H         3.149699         0.926900         3.129906
 H         2.450380         1.839097         1.161560
