19
Iteration:  1460
 C        -0.066893        -0.069338        -0.090442
 C         1.391791        -0.071831         0.208627
 C         2.265075        -1.347175         0.179550
 C         3.166576        -0.048746         0.123381
 C         4.643169         0.039882         0.454143
 O         4.359490        -0.303697         1.922519
 C         3.100949         0.179797         2.387896
 C         2.333435         0.601523         1.171577
 O         2.444329         0.551132        -0.943830
 H        -0.500107        -0.935947         0.609692
 H        -0.518374         0.936562         0.130230
 H        -0.169846        -0.186859        -1.168010
 H         2.234567        -1.761186         1.231216
 H         2.158327        -2.015437        -0.701441
 H         5.271103        -0.861579         0.251261
 H         5.165173         1.045509         0.310606
 H         2.566264        -0.571402         2.948827
 H         3.074041         1.102264         3.031756
 H         2.275390         1.710619         1.029320
