19
Iteration:  1331
 C        -0.010559         0.211912        -0.191710
 C         1.427891        -0.126754         0.128386
 C         2.248762        -1.407544         0.015517
 C         3.177515        -0.280406         0.186378
 C         4.576872        -0.045265         0.562599
 O         4.479380         0.151442         1.926854
 C         3.100290        -0.026146         2.410886
 C         2.402406         0.485076         1.294247
 O         2.207619         0.504761        -0.861041
 H        -0.624655        -0.024635         0.645301
 H         0.012720         1.309462        -0.525793
 H        -0.286124        -0.553077        -0.910333
 H         2.483166        -2.188502         0.773071
 H         2.303015        -1.988280        -0.919053
 H         5.265948        -0.855597         0.395629
 H         4.946400         0.958280         0.168233
 H         2.852368        -1.211918         2.586416
 H         2.981631         0.565445         3.356767
 H         2.414990         1.601976         1.059012
