19
Iteration:  4128
 C        -0.137207         0.026884        -0.040271
 C         1.422979        -0.148259         0.163003
 C         2.365091        -1.348593         0.030742
 C         3.173186        -0.009348         0.101978
 C         4.584298         0.052106         0.504559
 O         4.442294        -0.319348         1.953651
 C         3.010353         0.057975         2.477708
 C         2.338927         0.601202         1.225718
 O         2.418551         0.644916        -0.944426
 H        -0.617190        -1.042314         0.000093
 H        -0.771475         0.630714         0.630329
 H        -0.147598         0.335569        -1.143305
 H         2.378496        -2.235404         0.655214
 H         2.337448        -1.712574        -1.035545
 H         5.222633        -0.825330         0.159478
 H         4.906950         1.107647         0.496563
 H         2.802388        -0.954784         2.818515
 H         3.165795         0.844257         3.197420
 H         2.285193         1.695866         1.067957
