19
Iteration:  2460charge 0 multiplicity 1
 C        -0.149217         0.245195        -0.246357
 C         1.341508        -0.101730         0.127881
 C         2.134853        -1.449746         0.135370
 C         3.220619        -0.209736         0.132920
 C         4.638826         0.041824         0.518271
 O         4.551496         0.064624         1.971255
 C         3.136966        -0.000426         2.460326
 C         2.422792         0.513496         1.239840
 O         2.298509         0.388935        -0.907013
 H        -0.742492         0.050641         0.691674
 H        -0.210252         1.246307        -0.559529
 H        -0.341073        -0.564957        -1.040822
 H         2.151594        -2.075656         1.044765
 H         2.152173        -1.988183        -0.809689
 H         5.460931        -0.722816         0.402502
 H         4.762792         1.098949         0.139075
 H         2.938830        -1.004555         2.650096
 H         3.166324         0.431212         3.538990
 H         2.530288         1.641936         1.050581
