19
Iteration:  3459charge 0 multiplicity 1
 C        -0.129287         0.094939        -0.034753
 C         1.456158        -0.086755         0.100964
 C         2.218281        -1.453735         0.117190
 C         3.199615        -0.201437         0.095542
 C         4.648396         0.015724         0.533505
 O         4.382085        -0.135783         1.944017
 C         3.085470         0.247344         2.488018
 C         2.450743         0.638748         1.131001
 O         2.343620         0.391600        -0.961589
 H        -0.670207        -0.804161         0.185409
 H        -0.411729         0.852204         0.624589
 H        -0.401103         0.459479        -1.013478
 H         2.428941        -2.119626         0.962835
 H         2.026073        -1.935060        -0.921778
 H         5.334501        -0.762101         0.298325
 H         5.087841         1.032648         0.307018
 H         2.599673        -0.763219         2.990931
 H         3.315231         0.974948         3.311367
 H         2.351979         1.743322         0.907795
