19
Iteration:  2571
 C        -0.097456         0.086845         0.065404
 C         1.407593        -0.111073         0.172462
 C         2.297300        -1.394848         0.118750
 C         3.227403        -0.076111         0.063775
 C         4.586180         0.055130         0.561081
 O         4.385017        -0.329209         1.920527
 C         3.032412         0.190872         2.368885
 C         2.272758         0.693289         1.143344
 O         2.479911         0.421698        -1.012233
 H        -0.758448        -0.279958         0.857049
 H        -0.463647         1.161997         0.041959
 H        -0.389590        -0.425568        -0.905371
 H         2.335761        -2.138769         0.960746
 H         2.384045        -1.968177        -0.800801
 H         5.478093        -0.589949         0.184961
 H         5.040602         1.095444         0.623974
 H         2.622286        -0.642402         2.882958
 H         3.326121         0.970847         3.191441
 H         2.297211         1.832091         1.051267
