19
Iteration:  2014charge 0 multiplicity 1
 C        -0.158439        -0.006928         0.102178
 C         1.451604        -0.113031         0.151446
 C         2.328106        -1.364010         0.087116
 C         3.232679        -0.073807         0.039866
 C         4.620289         0.108754         0.577541
 O         4.371912        -0.352215         2.007206
 C         3.023019         0.162423         2.340376
 C         2.330069         0.678812         1.072852
 O         2.428672         0.493454        -1.029100
 H        -0.427862         0.153088         1.177820
 H        -0.317062         0.871638        -0.394891
 H        -0.459917        -0.964800        -0.241588
 H         2.422925        -1.841385         1.060680
 H         2.258203        -1.982415        -0.805149
 H         5.316519        -0.450674         0.063239
 H         5.018764         1.168412         0.583105
 H         2.377540        -0.641206         2.809106
 H         3.251674         0.752095         3.222409
 H         2.247827         1.795321         0.962959
