19
Iteration:   822
 C        -0.068137         0.194082        -0.174222
 C         1.359641        -0.156395         0.071157
 C         2.179409        -1.435676        -0.043501
 C         3.085497        -0.198193         0.172810
 C         4.593362        -0.038028         0.591561
 O         4.546257         0.340360         1.924515
 C         3.175465        -0.158608         2.475375
 C         2.321447         0.390650         1.313402
 O         2.386011         0.511781        -0.855292
 H        -0.699832        -0.177902         0.563309
 H        -0.249616         1.333752        -0.139434
 H        -0.475065        -0.191281        -1.083826
 H         2.070808        -2.248924         0.665673
 H         2.132920        -1.992695        -1.011908
 H         5.248158        -0.981235         0.440445
 H         5.056429         0.777836        -0.001175
 H         3.274895        -1.195145         2.412012
 H         2.948705         0.194752         3.529826
 H         2.443537         1.522411         1.196904
