19
Iteration:  3331charge 0 multiplicity 1
 C        -0.099882         0.115384         0.036701
 C         1.380882        -0.164238         0.017080
 C         2.267854        -1.422316         0.064010
 C         3.162958        -0.086449         0.117246
 C         4.620747        -0.131325         0.611591
 O         4.491554         0.061066         2.069177
 C         3.139017         0.031083         2.406331
 C         2.390082         0.611086         1.131824
 O         2.295851         0.492803        -1.056738
 H        -0.499152         0.279212         1.055816
 H        -0.324716         1.183921        -0.516075
 H        -0.634953        -0.608488        -0.601735
 H         2.263738        -1.860703         1.013105
 H         2.221721        -2.072863        -0.832270
 H         5.212612        -1.044033         0.502674
 H         5.125925         0.678646         0.052476
 H         2.905798        -1.219634         2.619432
 H         2.971313         0.533378         3.390520
 H         2.246467         1.671818         1.048982
