19
Iteration:  4085charge 0 multiplicity 1
 C        -0.018056         0.000570        -0.103919
 C         1.391852        -0.014409         0.140228
 C         2.283783        -1.381327        -0.029380
 C         3.203967        -0.080953         0.149341
 C         4.632507         0.027874         0.557871
 O         4.523858        -0.209461         2.033723
 C         3.045198        -0.019235         2.486117
 C         2.388475         0.627546         1.228970
 O         2.225689         0.590623        -1.008608
 H        -0.546783        -0.903450        -0.569481
 H        -0.545684         0.255286         0.839572
 H        -0.370933         0.832178        -0.781273
 H         2.183491        -2.039602         0.806274
 H         2.288397        -1.926844        -0.992107
 H         5.161567        -0.801154         0.104677
 H         4.939243         1.045028         0.372088
 H         2.523166        -1.005758         2.670876
 H         3.254316         0.630714         3.270191
 H         2.415613         1.731557         1.281285
