19
Iteration:  4586charge 0 multiplicity 1
 C        -0.094466         0.074038        -0.085299
 C         1.404357        -0.089287         0.063861
 C         2.282357        -1.298482        -0.115627
 C         3.190028        -0.114559         0.115206
 C         4.637445         0.060699         0.545866
 O         4.485619         0.035500         1.979163
 C         3.064964        -0.263048         2.368852
 C         2.275436         0.378051         1.257809
 O         2.370683         0.687341        -0.744533
 H        -0.203114         1.123058        -0.343485
 H        -0.610077        -0.590884        -0.790075
 H        -0.504267         0.103561         0.961561
 H         2.189759        -2.001802         0.689715
 H         2.274097        -1.683737        -1.065793
 H         5.181104        -0.876024         0.192768
 H         5.113871         0.960971         0.039217
 H         2.871038        -1.299276         2.419997
 H         3.038654         0.128665         3.391183
 H         2.253971         1.447054         1.500665
