19
Iteration:   434
 C        -0.093025        -0.101079        -0.004988
 C         1.434562        -0.123380         0.173239
 C         2.411883        -1.314381         0.056894
 C         3.247000        -0.016244         0.001635
 C         4.664890         0.036671         0.648417
 O         4.302933        -0.437029         1.988960
 C         3.061311         0.229405         2.373443
 C         2.393253         0.702112         1.082728
 O         2.241737         0.571474        -0.958850
 H        -0.580078        -0.187074         1.073161
 H        -0.421566         0.837568        -0.300091
 H        -0.482733        -0.851382        -0.652925
 H         2.649075        -1.760933         1.045472
 H         2.391106        -1.917949        -0.886305
 H         5.506645        -0.587292         0.256998
 H         5.082527         1.001271         0.610993
 H         2.453964        -0.525887         2.958191
 H         3.370284         0.954697         3.020732
 H         2.295631         1.755977         0.962694
