19
Iteration:  1322
 C        -0.014054         0.121927        -0.143658
 C         1.391839        -0.112007         0.135938
 C         2.290738        -1.376542        -0.000668
 C         3.185660        -0.198769         0.148714
 C         4.590065        -0.084331         0.496604
 O         4.502073         0.105969         1.993009
 C         3.153282         0.034233         2.457018
 C         2.293929         0.459028         1.291195
 O         2.267681         0.487480        -0.902732
 H        -0.749007         0.086658         0.566604
 H        -0.116678         1.276984        -0.460828
 H        -0.287093        -0.355099        -1.115070
 H         2.244969        -2.091445         0.828782
 H         2.139136        -1.762458        -1.025000
 H         5.176249        -0.952905         0.279395
 H         5.051371         0.819437         0.064084
 H         2.755405        -1.045570         2.746208
 H         3.038919         0.668086         3.360878
 H         2.160533         1.576329         1.248051
