19
Iteration:  3919charge 0 multiplicity 1
 C        -0.059491         0.046375        -0.104379
 C         1.439151        -0.016969         0.028091
 C         2.189667        -1.364331         0.018512
 C         3.199140        -0.200770         0.073359
 C         4.618660        -0.004673         0.502522
 O         4.440893        -0.057851         1.993969
 C         3.100748         0.027935         2.474652
 C         2.417664         0.527225         1.285109
 O         2.314636         0.547756        -0.892691
 H        -0.407385        -0.183864        -1.162383
 H        -0.604591        -0.620283         0.686479
 H        -0.382941         1.055030         0.181898
 H         2.134524        -2.074230         0.792911
 H         2.169151        -1.808988        -0.972280
 H         5.392464        -0.733170         0.319245
 H         4.738293         0.997759         0.226506
 H         2.698701        -1.110290         2.854846
 H         3.093089         0.659207         3.378965
 H         2.640528         1.641784         1.290614
