19
Iteration:  2330
 C        -0.060972         0.033084        -0.014086
 C         1.389382        -0.144647         0.165959
 C         2.304561        -1.353722         0.153754
 C         3.194307        -0.056038         0.144178
 C         4.609988        -0.111873         0.493103
 O         4.386480        -0.147396         1.954809
 C         3.061884         0.234863         2.419647
 C         2.329239         0.642445         1.143691
 O         2.393675         0.434084        -1.003010
 H        -0.527201        -0.826629         0.402483
 H        -0.271977         0.997624         0.356334
 H        -0.083880         0.069111        -1.119947
 H         2.239207        -2.079824         0.995797
 H         2.387290        -1.833622        -0.862020
 H         5.242775        -1.096459         0.200971
 H         5.140053         0.793989         0.220517
 H         2.539102        -0.635982         2.941326
 H         3.196690         1.157332         3.139397
 H         2.138189         1.770549         0.973278
