19
Iteration:  1388
 C        -0.101328         0.114588         0.018994
 C         1.467852        -0.118873         0.078174
 C         2.250114        -1.409414         0.038525
 C         3.201227        -0.179236         0.113361
 C         4.573119        -0.041048         0.455564
 O         4.429168         0.133575         2.055090
 C         3.046273        -0.032174         2.390500
 C         2.342928         0.555007         1.188481
 O         2.415391         0.472504        -0.922251
 H        -0.505267        -0.232228         0.880562
 H        -0.198661         1.243380        -0.207310
 H        -0.550318        -0.339056        -0.885211
 H         2.156049        -2.100296         0.864534
 H         2.271292        -1.753534        -0.996259
 H         5.080871        -0.970235         0.260516
 H         5.190624         0.778674         0.083901
 H         2.809659        -1.207635         2.500397
 H         2.895611         0.409821         3.391382
 H         2.402499         1.650719         1.134977
