19
Iteration:  2873
 C        -0.019968         0.112924         0.061707
 C         1.501070        -0.054462         0.176131
 C         2.386718        -1.340145         0.119181
 C         3.218405        -0.072114         0.018489
 C         4.624474         0.018817         0.578737
 O         4.377563        -0.249421         1.971710
 C         2.987506         0.077757         2.373390
 C         2.351674         0.630449         1.194409
 O         2.268584         0.429431        -1.075993
 H        -0.620770         0.240871         1.017240
 H        -0.165404         0.942242        -0.653866
 H        -0.538956        -0.800880        -0.444837
 H         2.402376        -2.207139         0.886110
 H         2.214136        -1.707727        -0.925434
 H         5.343599        -0.790083         0.373973
 H         5.073002         1.027034         0.541662
 H         2.532902        -0.796001         2.906834
 H         3.053066         0.857826         3.164018
 H         2.194161         1.704747         1.084373
