19
Iteration:  1901
 C        -0.101043         0.181506        -0.056178
 C         1.367356        -0.088198         0.121967
 C         2.237394        -1.416806         0.069510
 C         3.235564        -0.214247         0.072307
 C         4.678211        -0.180368         0.520583
 O         4.448385         0.284880         2.011258
 C         3.034917         0.006348         2.398578
 C         2.376027         0.450718         1.170938
 O         2.331365         0.497028        -0.914051
 H        -0.704346        -0.663325         0.266090
 H        -0.602994         0.901980         0.671257
 H        -0.425343         0.318476        -1.113339
 H         2.445485        -2.211066         0.850987
 H         2.236616        -2.008892        -0.893101
 H         5.065945        -1.214742         0.373208
 H         5.468655         0.444996         0.090937
 H         2.996028        -1.073334         2.647633
 H         3.094745         0.394203         3.440392
 H         2.431453         1.586507         1.090945
