19
Iteration:  4553
 C        -0.051965         0.070760        -0.106352
 C         1.389414        -0.069049         0.134453
 C         2.252614        -1.230202        -0.123303
 C         3.186294        -0.094529        -0.005936
 C         4.600626         0.069895         0.590687
 O         4.520963        -0.043063         2.091098
 C         3.145433        -0.255629         2.460063
 C         2.374066         0.412533         1.271659
 O         2.234127         0.625940        -0.913221
 H        -0.355400         1.086402         0.181867
 H        -0.308872         0.049893        -1.172704
 H        -0.616527        -0.673003         0.563010
 H         2.280793        -1.932959         0.674044
 H         2.087981        -1.673119        -1.023599
 H         5.152603        -0.853298         0.203570
 H         5.130745         1.091214         0.367041
 H         3.021191        -1.330352         2.564957
 H         2.988596         0.362505         3.375349
 H         2.205595         1.542713         1.321759
