19
Iteration:  1270
 C         0.017110        -0.042661        -0.022734
 C         1.423757         0.024659         0.128832
 C         2.222211        -1.318979         0.115225
 C         3.209261        -0.115766         0.098619
 C         4.642510        -0.048479         0.545185
 O         4.436451        -0.133502         1.968916
 C         2.965886         0.043628         2.420361
 C         2.425986         0.669702         1.133943
 O         2.306102         0.496113        -0.960356
 H        -0.202249        -0.893693         0.640261
 H        -0.733118         0.711501         0.288995
 H        -0.308427        -0.305396        -1.046898
 H         2.274906        -1.976154         0.961027
 H         2.161922        -1.736671        -0.897538
 H         5.262302        -0.918098         0.186842
 H         5.161025         0.856730         0.261630
 H         2.512483        -0.797559         2.751878
 H         2.999952         0.810480         3.188019
 H         2.534924         1.741204         1.047419
