19
Iteration:    97
 C        -0.128285         0.016374        -0.119553
 C         1.407748        -0.082639         0.166341
 C         2.269971        -1.359107         0.059460
 C         3.131436        -0.088829         0.059285
 C         4.532858        -0.139784         0.521907
 O         4.477911         0.160991         2.008099
 C         3.098499        -0.057813         2.479489
 C         2.400575         0.554350         1.238824
 O         2.410146         0.547632        -0.989022
 H        -0.562566        -0.636486         0.785543
 H        -0.572813         0.948828        -0.200861
 H        -0.302730        -0.540628        -0.987152
 H         2.301061        -2.102137         0.852807
 H         2.369162        -1.750157        -0.924107
 H         4.768654        -1.179596         0.521877
 H         5.226912         0.616568         0.102308
 H         2.893100        -1.142666         2.672120
 H         3.051318         0.590746         3.333963
 H         2.492708         1.599125         1.221172
