19
Iteration:  1407charge 0 multiplicity 1
 C        -0.073743         0.078264        -0.016272
 C         1.406286        -0.096318         0.171007
 C         2.315737        -1.386101         0.045127
 C         3.225266        -0.171528         0.027421
 C         4.693853        -0.122124         0.654963
 O         4.482285         0.037836         1.982548
 C         2.991843         0.024218         2.410827
 C         2.378139         0.501914         1.091580
 O         2.228147         0.596811        -0.957920
 H        -0.513867        -0.550662         0.779541
 H        -0.282624         1.201878         0.025548
 H        -0.366308        -0.350145        -0.986916
 H         2.273526        -2.064334         0.931246
 H         2.149977        -1.981662        -0.868028
 H         5.429451        -0.905182         0.467623
 H         5.288813         0.817287         0.366058
 H         2.573392        -0.880481         2.768850
 H         2.902064         0.845460         3.124337
 H         2.353814         1.615214         0.932739
