19
Iteration:   184
 C        -0.019057         0.059392        -0.056617
 C         1.406755        -0.145837         0.082865
 C         2.381864        -1.317277         0.333290
 C         3.183057        -0.021835         0.095504
 C         4.556994         0.173969         0.558863
 O         4.431656        -0.397212         1.876398
 C         3.028211         0.054862         2.329390
 C         2.279986         0.681037         1.151844
 O         2.383511         0.442884        -0.988532
 H        -0.654748        -0.471760         0.946164
 H        -0.106641         1.094493         0.129450
 H        -0.534692        -0.319872        -0.905262
 H         2.396630        -1.669493         1.348986
 H         2.469691        -2.062369        -0.450693
 H         5.404346        -0.272921        -0.005475
 H         4.706708         1.334743         0.502391
 H         2.458949        -0.846361         2.648214
 H         3.154356         0.756759         3.124897
 H         2.275954         1.736370         1.056605
