19
Iteration:  2658
 C        -0.090307         0.111807        -0.076405
 C         1.393773        -0.020261         0.156107
 C         2.215112        -1.368640         0.090758
 C         3.153134        -0.179535         0.065594
 C         4.547734        -0.112894         0.577248
 O         4.498587         0.024277         1.994841
 C         3.150181         0.006882         2.515153
 C         2.330054         0.452552         1.213371
 O         2.419004         0.570347        -1.048180
 H        -0.475142        -0.012785         0.948039
 H        -0.473637         1.017926        -0.679196
 H        -0.448093        -0.760727        -0.663026
 H         2.371037        -2.070703         0.903859
 H         2.205588        -1.892493        -0.850714
 H         5.144539        -0.932986         0.209765
 H         5.016618         0.718072         0.009950
 H         2.745121        -0.876071         2.833896
 H         2.851848         0.889229         3.134893
 H         2.414500         1.569341         1.058255
