19
Iteration:  3616charge 0 multiplicity 1
 C        -0.115592         0.165892        -0.078940
 C         1.395005        -0.080886         0.010043
 C         2.219485        -1.424738         0.121170
 C         3.183360        -0.161856         0.097869
 C         4.611464        -0.096474         0.543559
 O         4.583727         0.101961         2.004140
 C         3.055311         0.019071         2.462975
 C         2.347798         0.507631         1.180648
 O         2.308923         0.481519        -0.954838
 H        -0.421973         0.992860         0.541293
 H        -0.618701         0.354960        -1.010998
 H        -0.629548        -0.668397         0.170770
 H         2.531824        -2.069041         1.005246
 H         2.162152        -2.048147        -0.785513
 H         5.247806        -0.966620         0.296926
 H         5.083591         0.789428         0.297206
 H         2.963488        -1.101725         2.778616
 H         2.994943         0.518452         3.490026
 H         2.468667         1.562434         0.929733
