19
Iteration:  3747
 C        -0.098027         0.120056        -0.085865
 C         1.410822        -0.066387         0.049405
 C         2.254455        -1.364936         0.168288
 C         3.183659        -0.040550         0.148594
 C         4.596413         0.126500         0.514259
 O         4.492045        -0.253643         1.946770
 C         3.061439         0.006900         2.403228
 C         2.378561         0.591346         1.213476
 O         2.344044         0.464090        -0.944116
 H        -0.456630         0.262756        -1.164175
 H        -0.326479        -0.966232         0.061225
 H        -0.480904         0.832609         0.606729
 H         2.171113        -2.067307         1.052567
 H         2.150221        -1.978823        -0.806546
 H         5.372120        -0.523731         0.213346
 H         5.015975         1.123924         0.406991
 H         2.650724        -1.018783         2.750527
 H         3.142310         0.654752         3.350602
 H         2.363317         1.672125         1.099981
