19
Iteration:   235
 C        -0.113867        -0.015430        -0.053342
 C         1.417067        -0.162012         0.105229
 C         2.346747        -1.388920        -0.024859
 C         3.188444        -0.096737         0.140081
 C         4.611869        -0.103846         0.529967
 O         4.485787        -0.157432         2.000250
 C         3.068686         0.224472         2.460115
 C         2.343231         0.557370         1.161480
 O         2.283075         0.646022        -0.888469
 H        -0.684822        -0.250390         0.785974
 H        -0.335751         1.015847        -0.497556
 H        -0.411726        -0.755403        -0.842831
 H         2.528925        -2.151450         0.877890
 H         2.421167        -1.974078        -0.956372
 H         5.102186        -1.064960         0.137376
 H         4.996679         0.854379         0.291777
 H         2.608808        -0.638951         3.063655
 H         3.182435         1.109740         3.118870
 H         2.369008         1.697819         0.965056
