19
Iteration:  3659
 C        -0.086167         0.092511        -0.048282
 C         1.392228        -0.067733         0.189076
 C         2.263035        -1.385759         0.010114
 C         3.167428        -0.191901         0.009506
 C         4.584358        -0.124314         0.530810
 O         4.453089         0.142612         2.023671
 C         3.101990         0.012535         2.389834
 C         2.405006         0.500841         1.268714
 O         2.380383         0.564314        -0.982479
 H        -0.387643         1.074372        -0.414063
 H        -0.366008        -0.715114        -0.835094
 H        -0.566014        -0.117976         0.861700
 H         2.178690        -2.165497         0.889864
 H         1.964021        -1.861565        -0.944848
 H         4.888351        -1.146600         0.591188
 H         5.227588         0.476159        -0.019224
 H         2.771038        -1.060376         2.805745
 H         2.873003         0.429759         3.431989
 H         2.577020         1.593309         1.326470
