19
Iteration:   995
 C        -0.089590        -0.046364        -0.165536
 C         1.357458        -0.073563         0.144143
 C         2.295181        -1.323841         0.013380
 C         3.229974        -0.111348         0.075296
 C         4.603568         0.011068         0.552246
 O         4.468136        -0.250543         1.967852
 C         3.091245         0.118171         2.435925
 C         2.404768         0.646777         1.237668
 O         2.287759         0.553233        -0.862789
 H        -0.654074        -0.095832         0.740362
 H        -0.436765         1.037323        -0.646920
 H        -0.428397        -0.845512        -0.813650
 H         2.310558        -1.933230         0.923792
 H         2.174815        -1.846603        -0.960283
 H         5.280818        -0.835850         0.242365
 H         5.022535         1.016171         0.278220
 H         2.801128        -0.827183         3.063057
 H         3.219087         0.879951         3.239946
 H         2.330441         1.789461         1.288025
