19
Iteration:   552
 C        -0.168886         0.103718        -0.178006
 C         1.346572        -0.098119         0.056948
 C         2.218589        -1.440347        -0.030299
 C         3.240447        -0.206378         0.179899
 C         4.632876        -0.184479         0.546229
 O         4.455366         0.275490         1.930207
 C         3.189738         0.020335         2.477795
 C         2.381318         0.376802         1.265505
 O         2.344049         0.615969        -0.824040
 H        -0.723179        -0.480145         0.672826
 H        -0.526952         1.085184         0.000574
 H        -0.370300        -0.207565        -1.172086
 H         2.150057        -2.162911         0.794987
 H         2.210279        -1.816513        -1.057784
 H         5.159702        -1.229942         0.403693
 H         5.365842         0.618295         0.035453
 H         3.063791        -1.103224         2.787421
 H         3.033098         0.608215         3.375362
 H         2.186059         1.419472         1.199657
