19
Iteration:   180
 C        -0.014619         0.042019        -0.037426
 C         1.421959        -0.179185         0.087229
 C         2.361518        -1.336238         0.323115
 C         3.176400         0.002864         0.105898
 C         4.560064         0.147534         0.545471
 O         4.434896        -0.376731         1.888968
 C         3.015416         0.054274         2.298034
 C         2.266895         0.686178         1.161514
 O         2.395880         0.460673        -0.979918
 H        -0.573148        -0.355157         0.761256
 H        -0.101881         1.146873         0.190425
 H        -0.607190        -0.258487        -0.937607
 H         2.488877        -1.775226         1.387876
 H         2.389518        -2.028736        -0.528561
 H         5.446020        -0.268119        -0.038302
 H         4.775811         1.213214         0.532448
 H         2.476984        -0.836478         2.742849
 H         3.207630         0.811211         3.085067
 H         2.179731         1.819766         0.998306
