19
Iteration:  4429
 C         0.003860         0.017532        -0.037900
 C         1.453703        -0.088128         0.130414
 C         2.392798        -1.315913        -0.008369
 C         3.224836         0.123700         0.070517
 C         4.576670         0.061708         0.611809
 O         4.423324        -0.372286         1.960315
 C         3.067094        -0.096054         2.451039
 C         2.264333         0.491009         1.259460
 O         2.236219         0.721520        -0.981076
 H        -0.317455         1.097312        -0.216292
 H        -0.367764        -0.467410        -0.996524
 H        -0.412301        -0.606811         0.739413
 H         2.291415        -2.055721         0.724650
 H         2.525901        -1.842333        -1.007363
 H         5.162679        -0.648098         0.012054
 H         4.979178         1.167582         0.393789
 H         2.847895        -1.016075         2.977162
 H         3.165672         0.695882         3.192152
 H         2.193692         1.597829         1.342380
