19
Iteration:  4028charge 0 multiplicity 1
 C        -0.081253         0.127224        -0.027416
 C         1.415762        -0.027248         0.062010
 C         2.263199        -1.355919         0.001754
 C         3.203243        -0.155699         0.104787
 C         4.558228         0.028344         0.548885
 O         4.508834        -0.040473         2.029349
 C         3.069306        -0.040131         2.473180
 C         2.336267         0.499232         1.181185
 O         2.350893         0.465482        -0.971041
 H        -0.443501         0.167813        -1.108516
 H        -0.661213        -0.745457         0.466593
 H        -0.215740         1.007385         0.522346
 H         2.151185        -2.087390         0.791491
 H         2.155985        -1.870452        -1.003490
 H         5.345432        -0.621278         0.087263
 H         4.903594         1.024343         0.297342
 H         2.784855        -0.975219         2.908049
 H         3.204680         0.610824         3.319968
 H         2.270196         1.615491         1.205181
