19
Iteration:  1241charge 0 multiplicity 1
 C        -0.074128         0.073036        -0.004391
 C         1.364512        -0.148891         0.181427
 C         2.401799        -1.272171         0.154413
 C         3.178103        -0.037195         0.020940
 C         4.684866         0.010997         0.606352
 O         4.403180        -0.290756         2.018229
 C         3.024807         0.093023         2.377356
 C         2.379194         0.655065         1.047771
 O         2.290378         0.478258        -1.023720
 H        -0.558749        -0.697100         0.763851
 H        -0.486186         1.031468         0.255867
 H        -0.561263        -0.278855        -0.914187
 H         2.675330        -1.911552         1.026454
 H         2.453831        -1.917834        -0.723988
 H         5.414148        -0.727677         0.192067
 H         5.042060         1.058103         0.442410
 H         2.342703        -0.817423         2.805323
 H         3.255420         0.861819         3.162510
 H         2.239354         1.743411         1.018146
