19
Iteration:   787charge 0 multiplicity 1
 C        -0.093561         0.156797        -0.030196
 C         1.329647        -0.184484         0.181542
 C         2.288065        -1.433506        -0.011118
 C         3.198941        -0.115837         0.045080
 C         4.664024         0.000334         0.586455
 O         4.521345         0.110746         1.964294
 C         2.958543        -0.053701         2.441501
 C         2.378581         0.415885         1.164376
 O         2.326866         0.530573        -0.935126
 H        -0.569850        -0.142828         0.820934
 H        -0.115052         1.352908        -0.091009
 H        -0.513885        -0.306094        -0.946970
 H         2.310121        -1.993146         0.921980
 H         2.268468        -1.866123        -0.990265
 H         5.356026        -0.932748         0.358944
 H         5.178174         0.958045         0.288929
 H         2.788985        -1.048601         2.739899
 H         2.966883         0.560505         3.325963
 H         2.491176         1.569987         1.124096
