19
Iteration:    81charge 0 multiplicity 1
 C         0.000302         0.069332        -0.083495
 C         1.358388        -0.148702         0.262476
 C         2.283460        -1.355324         0.083832
 C         3.156015        -0.095404         0.121615
 C         4.588943        -0.104469         0.576760
 O         4.459612         0.209223         1.951840
 C         3.092745        -0.092791         2.310725
 C         2.253717         0.547642         1.238993
 O         2.411028         0.494471        -0.969510
 H        -0.781601        -0.295268         0.588649
 H        -0.164717         1.239917        -0.142685
 H        -0.256117        -0.299693        -1.162839
 H         2.352342        -2.030145         0.967805
 H         2.123905        -2.028059        -0.810565
 H         5.116553        -1.098128         0.345975
 H         5.230997         0.628854         0.044405
 H         2.942674        -1.181465         2.280013
 H         2.893267         0.110153         3.386678
 H         2.236516         1.700995         1.210535
