19
Iteration:  3243charge 0 multiplicity 1
 C        -0.068797         0.059821        -0.190725
 C         1.395623        -0.099041         0.139268
 C         2.290489        -1.357384         0.179741
 C         3.147002        -0.132999         0.161133
 C         4.589014        -0.015834         0.491705
 O         4.492717        -0.168011         1.936988
 C         3.117877         0.141204         2.407364
 C         2.428344         0.641523         1.223461
 O         2.247431         0.457626        -0.894484
 H        -0.670018        -0.629007         0.421874
 H        -0.387130         1.165791        -0.054502
 H        -0.158302        -0.033322        -1.312691
 H         2.455779        -1.955913         1.020064
 H         2.184272        -2.023386        -0.687839
 H         5.193447        -0.872365         0.253764
 H         4.996618         0.927731         0.208650
 H         2.623270        -0.793238         2.790519
 H         3.055698         0.864833         3.199666
 H         2.493677         1.699806         1.092526
