19
Iteration:  2403
 C        -0.110585         0.163574        -0.014639
 C         1.419254        -0.110769         0.100749
 C         2.260698        -1.406041         0.125207
 C         3.194512        -0.196828         0.102619
 C         4.590474        -0.117463         0.518133
 O         4.437839         0.112138         2.000421
 C         3.068083         0.002064         2.385557
 C         2.352101         0.542313         1.162252
 O         2.411080         0.488029        -0.942493
 H        -0.593457        -0.001101         1.058670
 H        -0.188195         1.227776        -0.387903
 H        -0.513770        -0.560306        -0.720569
 H         2.189389        -2.061284         0.946553
 H         2.386901        -1.938451        -0.825717
 H         5.099069        -0.966682         0.231343
 H         5.036638         0.708395        -0.110355
 H         2.856249        -0.987982         2.680237
 H         2.835190         0.705044         3.175701
 H         2.442423         1.591047         1.021352
