19
Iteration:  2780charge 0 multiplicity 1
 C        -0.082791         0.067340        -0.231731
 C         1.347444        -0.035812         0.118047
 C         2.234431        -1.290210         0.222462
 C         3.197785        -0.115802         0.050678
 C         4.651749        -0.040242         0.557050
 O         4.556265        -0.076198         2.003787
 C         3.178021         0.046129         2.422991
 C         2.384212         0.499761         1.223506
 O         2.175133         0.475421        -0.954013
 H        -0.709698        -0.764601        -0.040757
 H        -0.588906         1.026400         0.203085
 H        -0.156471         0.199027        -1.286109
 H         2.239370        -1.814352         1.144833
 H         2.115882        -2.031926        -0.594189
 H         5.111960        -0.955824         0.216651
 H         5.215563         0.787783         0.201637
 H         2.822381        -0.953687         2.970244
 H         3.165537         0.802196         3.258907
 H         2.575944         1.580677         1.325553
