19
Iteration:   629charge 0 multiplicity 1
 C         0.001865         0.108479        -0.045905
 C         1.436957        -0.028475         0.096642
 C         2.193976        -1.410583         0.137714
 C         3.191598        -0.163686         0.095339
 C         4.645405         0.021641         0.504173
 O         4.443075         0.060951         2.023712
 C         3.073278        -0.099219         2.353994
 C         2.296586         0.580014         1.212378
 O         2.333406         0.478519        -0.993837
 H        -0.310232        -0.471830         0.986981
 H        -0.389312         1.048113         0.017796
 H        -0.267601        -0.524197        -0.860510
 H         2.154809        -2.084268         0.991463
 H         2.281714        -1.990264        -0.795246
 H         5.285437        -0.843796         0.294224
 H         4.898074         1.155575         0.265680
 H         2.825665        -1.212055         2.550618
 H         2.999332         0.433129         3.233959
 H         2.446330         1.604670         1.134028
