19
Iteration:   903charge 0 multiplicity 1
 C        -0.129888        -0.008157         0.034902
 C         1.382533        -0.089771         0.164038
 C         2.348793        -1.352428         0.044140
 C         3.204010        -0.078104         0.048247
 C         4.612223         0.002253         0.530382
 O         4.427745        -0.163166         2.032948
 C         3.034351         0.027421         2.403552
 C         2.432319         0.582360         1.141036
 O         2.361448         0.595585        -1.000960
 H        -0.702108        -0.716843         0.735499
 H        -0.464998         0.938130         0.170840
 H        -0.314968        -0.296097        -1.022144
 H         2.226680        -1.920527         1.008978
 H         2.377837        -1.895382        -0.915365
 H         5.233826        -0.822261         0.249872
 H         5.056091         1.012781         0.319735
 H         2.527586        -0.864984         2.899533
 H         2.953908         0.851484         3.131807
 H         2.296195         1.629543         1.064171
