19
Iteration:  4224charge 0 multiplicity 1
 C        -0.133277         0.059220        -0.080423
 C         1.383893        -0.085029         0.100426
 C         2.360955        -1.379807        -0.043612
 C         3.177086        -0.040831         0.051317
 C         4.603395         0.051900         0.585192
 O         4.479668        -0.156981         2.012060
 C         3.093290        -0.129243         2.424273
 C         2.337270         0.483186         1.206354
 O         2.337949         0.684106        -0.851506
 H        -0.534976         0.527403         0.850729
 H        -0.295359         0.795563        -0.848750
 H        -0.544464        -0.865931        -0.316358
 H         2.525256        -2.132905         0.787807
 H         2.290715        -1.875037        -1.109848
 H         5.267504        -0.824190         0.297453
 H         4.892125         1.060915         0.363992
 H         2.733708        -1.093898         2.552951
 H         2.909687         0.687725         3.230294
 H         2.230241         1.612603         1.256815
