19
Iteration:  2653
 C        -0.090371         0.108056        -0.103099
 C         1.356097        -0.007593         0.178359
 C         2.221971        -1.385440         0.066254
 C         3.169544        -0.212871         0.085004
 C         4.556677        -0.081249         0.583136
 O         4.527568        -0.013438         2.013279
 C         3.185256         0.048108         2.511189
 C         2.303489         0.482615         1.216720
 O         2.402697         0.580461        -1.069982
 H        -0.642601         0.059539         0.881427
 H        -0.495561         0.877874        -0.691975
 H        -0.420101        -0.803889        -0.663462
 H         2.315992        -2.041217         0.964834
 H         2.119242        -1.950133        -0.891732
 H         5.119718        -0.994615         0.233023
 H         5.014107         0.807483         0.088213
 H         2.733138        -1.024279         2.800212
 H         2.945865         0.865281         3.173319
 H         2.425879         1.555467         1.116039
