19
Iteration:  2924charge 0 multiplicity 1
 C        -0.097373         0.053856        -0.222955
 C         1.362423        -0.052063         0.179447
 C         2.200618        -1.294063         0.124600
 C         3.188180        -0.133598         0.137036
 C         4.669003         0.010365         0.530967
 O         4.531858        -0.235135         1.968618
 C         3.149829         0.154266         2.439358
 C         2.384631         0.606313         1.231544
 O         2.263802         0.457500        -0.946079
 H        -0.686780        -0.513103         0.554713
 H        -0.510840         1.011964        -0.343108
 H        -0.290511        -0.658461        -1.088032
 H         2.175891        -1.949555         1.038357
 H         2.067866        -1.853560        -0.794854
 H         5.350994        -0.847645         0.167581
 H         5.021298         1.025454         0.399290
 H         2.624557        -0.633427         3.064438
 H         3.371420         0.898639         3.223937
 H         2.285602         1.653730         0.930655
