19
Iteration:  2042
 C        -0.054279        -0.043508         0.122419
 C         1.487859        -0.025728         0.072784
 C         2.343431        -1.319446         0.024539
 C         3.312518        -0.113251         0.020596
 C         4.683260         0.024292         0.618595
 O         4.285323        -0.286705         2.054524
 C         3.036625         0.184807         2.412209
 C         2.387749         0.610024         1.044839
 O         2.208326         0.516681        -1.035621
 H        -0.233732        -0.197838         1.224444
 H        -0.482350         0.962121        -0.219805
 H        -0.342122        -0.928528        -0.480873
 H         2.342913        -1.960469         0.954582
 H         2.294843        -1.902524        -0.921290
 H         5.367172        -0.846764         0.243605
 H         5.202551         0.982046         0.445333
 H         2.476361        -0.525006         3.064020
 H         3.143628         1.044803         3.138119
 H         2.384480         1.717685         1.002035
