19
Iteration:  1645charge 0 multiplicity 1
 C        -0.132400         0.141453        -0.213837
 C         1.419400        -0.106760         0.042933
 C         2.116649        -1.396099         0.076878
 C         3.189291        -0.183849         0.106500
 C         4.594022        -0.020700         0.501728
 O         4.557428         0.102346         2.068550
 C         3.231204         0.018752         2.539941
 C         2.416688         0.455536         1.251250
 O         2.264262         0.458015        -0.954751
 H        -0.800171        -0.773848         0.081449
 H        -0.664995         0.962243         0.155491
 H        -0.454330         0.252818        -1.243665
 H         2.156327        -2.134912         0.900864
 H         2.222182        -1.875446        -0.923634
 H         5.426330        -0.769034         0.172580
 H         4.986131         0.957786         0.261737
 H         2.932834        -1.014893         3.073763
 H         2.989812         0.780683         3.379551
 H         2.469790         1.587758         1.211907
