19
Iteration:   764charge 0 multiplicity 1
 C        -0.079966         0.033098         0.059161
 C         1.406762        -0.079659         0.147239
 C         2.352721        -1.376027         0.033721
 C         3.198697        -0.082338         0.094330
 C         4.622278        -0.009877         0.500590
 O         4.417681        -0.125480         2.055383
 C         3.046115         0.052762         2.345761
 C         2.340017         0.609966         1.144269
 O         2.342880         0.500480        -0.985645
 H        -0.543753        -0.388366         0.940436
 H        -0.366521         1.153107        -0.055366
 H        -0.410235        -0.517537        -0.871525
 H         2.357019        -2.032316         0.909970
 H         2.221066        -1.686852        -0.967203
 H         5.446630        -0.821344         0.327169
 H         5.013421         1.025508         0.384389
 H         2.729394        -0.960138         2.539243
 H         2.861261         0.552431         3.249529
 H         2.309070         1.735961         1.078272
