19
Iteration:   834charge 0 multiplicity 1
 C        -0.164305         0.183988        -0.187431
 C         1.327240        -0.151373         0.164748
 C         2.126673        -1.429023        -0.015037
 C         3.238726        -0.185903         0.184495
 C         4.658031        -0.091585         0.499132
 O         4.476098         0.372709         1.985482
 C         3.211945        -0.161761         2.384696
 C         2.344197         0.335691         1.275222
 O         2.393430         0.539734        -0.825837
 H        -0.961756        -0.291232         0.376004
 H        -0.249259         1.260673        -0.298095
 H        -0.142410        -0.161022        -1.176142
 H         2.082972        -2.094004         0.843697
 H         2.128822        -1.730934        -1.100919
 H         5.204992        -1.077866         0.399800
 H         5.130755         0.733412        -0.044058
 H         3.211358        -1.213820         2.600461
 H         2.929438         0.371895         3.363008
 H         2.270082         1.452661         1.373412
