19
Iteration:  1561
 C        -0.159457         0.058222        -0.001250
 C         1.387876        -0.087688         0.087433
 C         2.152489        -1.366537        -0.055664
 C         3.282598        -0.149837         0.141772
 C         4.781701        -0.055314         0.581740
 O         4.495656         0.081996         2.042130
 C         3.035055        -0.018454         2.434586
 C         2.324337         0.580295         1.171517
 O         2.335290         0.475123        -0.995765
 H        -0.592652         0.006256         0.981005
 H        -0.464074         1.196001        -0.366904
 H        -0.458757        -0.856510        -0.655929
 H         2.031256        -2.022428         0.833938
 H         2.156300        -1.938897        -1.008205
 H         5.237844        -0.989298         0.430302
 H         5.356832         0.897488         0.284960
 H         2.642588        -0.981795         2.553692
 H         2.932121         0.456761         3.396175
 H         2.636045         1.633170         1.039109
