19
Iteration:  3438
 C        -0.010113         0.137686        -0.073158
 C         1.428797        -0.099798         0.221590
 C         2.230981        -1.385227         0.230509
 C         3.131231        -0.188325         0.048366
 C         4.590907        -0.009408         0.504815
 O         4.508103        -0.081212         2.011055
 C         3.034173         0.135210         2.332881
 C         2.362399         0.524542         1.151235
 O         2.335824         0.428466        -0.984417
 H        -0.587812        -0.749769        -0.081163
 H        -0.430153         0.924169         0.496051
 H         0.024629         0.445371        -1.095596
 H         2.114630        -1.883071         1.214131
 H         2.203768        -2.045185        -0.705216
 H         5.336428        -0.686127         0.147426
 H         4.926197         1.079901         0.253489
 H         2.716070        -0.796119         2.915463
 H         3.091598         0.994149         3.022564
 H         2.307767         1.613719         0.965585
