19
Iteration:  1736
 C        -0.106957        -0.033874         0.040689
 C         1.407535        -0.094235         0.110752
 C         2.330626        -1.336094         0.021225
 C         3.252561        -0.106906         0.053700
 C         4.631109         0.051478         0.653280
 O         4.360055        -0.340331         1.983786
 C         3.052253         0.234138         2.451720
 C         2.449542         0.611798         1.094907
 O         2.276998         0.542424        -1.001174
 H        -0.495534         0.028629         0.995808
 H        -0.364159         0.905141        -0.554959
 H        -0.406902        -0.967613        -0.472083
 H         2.371795        -2.073697         0.863210
 H         2.286469        -1.953296        -0.898309
 H         5.425778        -0.483534         0.245638
 H         4.941862         1.171940         0.444159
 H         2.540229        -0.692173         3.027950
 H         3.177451         1.004109         3.209428
 H         2.551221         1.739991         0.851148
