19
Iteration:  1458charge 0 multiplicity 1
 C        -0.081942        -0.070877        -0.081842
 C         1.394239        -0.057405         0.194090
 C         2.267848        -1.354268         0.166696
 C         3.177644        -0.051481         0.141851
 C         4.635417         0.035268         0.467356
 O         4.376842        -0.303753         1.920680
 C         3.098002         0.191794         2.383278
 C         2.324764         0.618197         1.180050
 O         2.439199         0.550548        -0.947568
 H        -0.511487        -0.946885         0.579579
 H        -0.458597         0.874294         0.116130
 H        -0.198858        -0.174154        -1.139685
 H         2.252391        -1.844851         1.180672
 H         2.179357        -2.032400        -0.701188
 H         5.265346        -0.876773         0.275290
 H         5.170655         0.961778         0.264455
 H         2.553297        -0.652053         2.936552
 H         3.048290         1.133248         2.992651
 H         2.278214         1.707364         1.057984
