19
Iteration:  2295charge 0 multiplicity 1
 C        -0.067961         0.137913        -0.205499
 C         1.395894        -0.120068         0.060288
 C         2.248144        -1.417371         0.301125
 C         3.195303        -0.185214         0.156727
 C         4.613593         0.151334         0.580592
 O         4.465462        -0.263230         1.945925
 C         3.178372         0.143567         2.456341
 C         2.419787         0.643491         1.108531
 O         2.241945         0.395683        -0.969467
 H        -0.830089        -0.413970         0.401928
 H        -0.374954         1.093743         0.016304
 H        -0.347577        -0.108403        -1.206474
 H         2.168710        -1.869270         1.268159
 H         2.309720        -2.171417        -0.495193
 H         5.561966        -0.176276         0.067774
 H         4.528510         1.181318         0.330408
 H         2.619219        -0.716324         2.860566
 H         3.302261         0.919379         3.310889
 H         2.373303         1.720264         0.875999
