19
Iteration:  2059charge 0 multiplicity 1
 C        -0.105284        -0.037840         0.055685
 C         1.410217        -0.158610         0.096940
 C         2.391241        -1.314030         0.041252
 C         3.173242        -0.044103         0.080051
 C         4.668977        -0.100976         0.629907
 O         4.447027        -0.277221         2.021343
 C         2.969171         0.250226         2.377091
 C         2.404820         0.726500         1.115277
 O         2.257521         0.521209        -1.033861
 H        -0.541918        -0.452167         0.970169
 H        -0.315915         1.032848         0.073880
 H        -0.530537        -0.696578        -0.728049
 H         2.483691        -2.025450         0.848880
 H         2.425880        -1.717482        -0.982478
 H         5.278182        -0.911923         0.291754
 H         5.297576         0.849614         0.558880
 H         2.696426        -0.726189         2.875712
 H         3.091288         0.943633         3.197842
 H         2.314835         1.779388         0.886396
