19
Iteration:  4542
 C        -0.013087         0.100535        -0.076562
 C         1.432564        -0.086559         0.091651
 C         2.268725        -1.364044        -0.066454
 C         3.200032        -0.008164         0.102878
 C         4.611006         0.026011         0.540157
 O         4.493236        -0.064274         1.996778
 C         3.078424        -0.208237         2.429826
 C         2.317440         0.390979         1.282255
 O         2.235933         0.706954        -0.905383
 H        -0.390549         0.974247         0.481118
 H        -0.249850         0.054150        -1.147074
 H        -0.556979        -0.835204         0.287274
 H         2.357324        -2.012360         0.765116
 H         2.161487        -1.831446        -0.978951
 H         5.352203        -0.760712         0.162205
 H         5.165736         1.048716         0.359089
 H         2.837820        -1.205922         2.798037
 H         2.881568         0.390047         3.370036
 H         2.455838         1.533848         1.348387
