19
Iteration:  4862
 C        -0.087504         0.159976        -0.087681
 C         1.403073        -0.130514         0.196917
 C         2.314656        -1.324728        -0.134438
 C         3.184836        -0.132226         0.131852
 C         4.676133         0.050830         0.479629
 O         4.485767         0.043594         2.017227
 C         3.063421        -0.262699         2.443215
 C         2.322346         0.420631         1.263572
 O         2.288573         0.640690        -0.873432
 H        -0.677365         1.049520         0.420728
 H        -0.325322         0.226617        -1.164894
 H        -0.678793        -0.661683         0.391596
 H         2.437497        -2.245686         0.481021
 H         2.228064        -1.512001        -1.265436
 H         5.471259        -0.754111         0.302030
 H         5.022453         1.026678         0.201927
 H         2.897744        -1.364305         2.385432
 H         2.866555         0.179970         3.515245
 H         2.271696         1.575182         1.473125
