19
Iteration:   976charge 0 multiplicity 1
 C        -0.003033        -0.000480        -0.039519
 C         1.442551        -0.107986         0.144426
 C         2.368853        -1.376352         0.125780
 C         3.209149         0.033021         0.091040
 C         4.644136         0.034442         0.518840
 O         4.350223        -0.368482         1.930752
 C         3.053186         0.141113         2.435299
 C         2.292131         0.577450         1.226837
 O         2.283086         0.595316        -0.985686
 H        -0.600222         0.008328         0.944166
 H        -0.275140         0.924056        -0.579683
 H        -0.256707        -0.858601        -0.621036
 H         2.320971        -2.011831         0.950812
 H         2.587364        -1.714985        -0.863550
 H         5.200307        -0.762020         0.036800
 H         5.027979         1.030651         0.452305
 H         2.680818        -0.613770         3.002003
 H         3.250897         0.990792         3.127626
 H         2.266909         1.593202         0.947802
