19
Iteration:  4544
 C        -0.009774         0.099699        -0.080748
 C         1.425870        -0.086928         0.096744
 C         2.260389        -1.324344        -0.080484
 C         3.205003        -0.027662         0.080423
 C         4.600888         0.037497         0.546210
 O         4.502155        -0.058254         2.017336
 C         3.094513        -0.221388         2.426902
 C         2.328845         0.392022         1.296929
 O         2.228911         0.689302        -0.913543
 H        -0.349849         0.976808         0.402971
 H        -0.290106         0.033632        -1.140718
 H        -0.557763        -0.829192         0.299341
 H         2.368336        -1.989738         0.769019
 H         2.077576        -1.800521        -0.956511
 H         5.303188        -0.763660         0.150758
 H         5.167845         1.003114         0.436830
 H         2.904786        -1.259532         2.819948
 H         2.833146         0.406232         3.404780
 H         2.400647         1.543900         1.273797
