19
Iteration:  3541charge 0 multiplicity 1
 C        -0.107316         0.035847        -0.129509
 C         1.397373        -0.093403         0.194777
 C         2.196048        -1.328245         0.240733
 C         3.224111        -0.026878         0.032502
 C         4.651409         0.047969         0.590586
 O         4.463002        -0.291565         1.961882
 C         3.104394         0.117178         2.388817
 C         2.385009         0.703814         1.178666
 O         2.342960         0.421921        -1.056414
 H        -0.576846         0.004104         0.934244
 H        -0.693958         0.853469        -0.614720
 H        -0.506658        -0.951044        -0.616169
 H         2.136446        -1.764714         1.271997
 H         2.117616        -2.045699        -0.564221
 H         5.333878        -0.853409         0.280385
 H         5.176508         1.074127         0.338891
 H         2.754481        -0.758736         2.945972
 H         3.293705         0.944320         3.133929
 H         2.285678         1.766937         0.988531
