19
Iteration:  2580charge 0 multiplicity 1
 C        -0.075018         0.116198        -0.009957
 C         1.376562        -0.110433         0.251107
 C         2.300169        -1.448256         0.173290
 C         3.148432        -0.002229         0.104675
 C         4.675644         0.088699         0.572652
 O         4.385597        -0.321590         1.912699
 C         3.089433         0.100310         2.405006
 C         2.271817         0.655864         1.178061
 O         2.474533         0.446072        -1.094462
 H        -0.686258        -0.211696         0.925869
 H        -0.313106         1.169386        -0.279750
 H        -0.393317        -0.608674        -0.891207
 H         2.324602        -2.097183         1.048305
 H         2.249313        -1.897190        -0.782772
 H         5.183752        -0.711286         0.073875
 H         4.935803         1.185969         0.343758
 H         2.506443        -0.597715         2.954930
 H         3.152149         1.045403         3.076769
 H         2.264144         1.754421         0.889509
