19
Iteration:  2369charge 0 multiplicity 1
 C        -0.056616        -0.039926         0.073682
 C         1.411964        -0.038667         0.066275
 C         2.182864        -1.278373         0.100941
 C         3.254744        -0.164790         0.038103
 C         4.744501        -0.239934         0.636208
 O         4.445288         0.015499         2.092522
 C         3.058231         0.122570         2.390022
 C         2.433340         0.634916         1.090931
 O         2.243352         0.515820        -1.094062
 H        -0.706283        -0.768560         0.703944
 H        -0.728001         0.907740         0.116039
 H        -0.512584        -0.304414        -0.899458
 H         2.093043        -1.974453         0.917664
 H         2.245097        -1.685384        -0.900635
 H         5.141008        -1.192293         0.527591
 H         5.369328         0.700563         0.328458
 H         2.740407        -0.809895         2.806292
 H         2.915686         0.842647         3.129438
 H         2.504351         1.675983         1.089903
