19
Iteration:  3965
 C        -0.144537         0.103858        -0.119773
 C         1.388908        -0.079307         0.058746
 C         2.385289        -1.321065         0.095134
 C         3.154171        -0.043464         0.129839
 C         4.640440        -0.120934         0.536460
 O         4.487722        -0.017576         1.926599
 C         3.134662        -0.073992         2.503261
 C         2.294509         0.625925         1.245697
 O         2.337499         0.494475        -0.955608
 H        -0.550963         0.495341        -1.142400
 H        -0.721873        -0.837929         0.090595
 H        -0.555820         0.736377         0.640273
 H         2.368904        -1.926523         0.961629
 H         2.384710        -1.921382        -0.851843
 H         4.853776        -1.123350         0.272488
 H         5.323888         0.700390         0.325057
 H         2.629202        -1.168787         2.720847
 H         3.149195         0.463807         3.428765
 H         2.105354         1.703108         1.175871
