19
Iteration:  2157charge 0 multiplicity 1
 C        -0.005470         0.208673        -0.120511
 C         1.394499        -0.128941         0.088396
 C         2.237085        -1.457600         0.140328
 C         3.146446        -0.166718         0.086921
 C         4.548450        -0.095954         0.477582
 O         4.510552         0.178939         1.984199
 C         3.079078         0.029368         2.408161
 C         2.319868         0.439665         1.227450
 O         2.346702         0.448197        -0.902510
 H        -0.649710        -0.441113         0.566478
 H        -0.075188         1.317581         0.238285
 H        -0.456739        -0.072273        -1.174024
 H         2.167518        -2.092336         1.049086
 H         2.609416        -2.069003        -0.743613
 H         5.251201        -0.903759         0.388653
 H         4.949578         0.894763        -0.029147
 H         2.904672        -0.991259         2.822825
 H         3.056359         0.652918         3.288437
 H         2.311426         1.569067         1.137767
