19
Iteration:  4680charge 0 multiplicity 1
 C        -0.171710        -0.013427        -0.033653
 C         1.405273        -0.127804         0.221692
 C         2.305353        -1.309875        -0.100407
 C         3.184120         0.025045         0.100478
 C         4.661733         0.158849         0.545382
 O         4.475395        -0.274608         1.981342
 C         3.054158        -0.161835         2.377020
 C         2.296517         0.505627         1.263556
 O         2.417912         0.711173        -0.915803
 H        -0.321273         0.936777        -0.623017
 H        -0.487548        -0.917286        -0.546073
 H        -0.671385         0.330077         0.853607
 H         2.403614        -2.129552         0.637336
 H         2.239760        -1.564850        -1.257019
 H         5.279552        -0.651952         0.204092
 H         5.131198         1.114322         0.451686
 H         2.599024        -1.212258         2.704352
 H         2.944612         0.442931         3.283772
 H         2.194133         1.585159         1.309004
