19
Iteration:  4777
 C        -0.108425        -0.044545        -0.065165
 C         1.394154        -0.136294         0.136766
 C         2.316801        -1.267529        -0.004903
 C         3.202608         0.013069         0.002231
 C         4.610011         0.038249         0.562499
 O         4.507857        -0.286621         2.007520
 C         3.074749        -0.089735         2.393354
 C         2.288646         0.533010         1.298563
 O         2.298796         0.765905        -0.959985
 H        -0.366085         0.684960         0.816515
 H        -0.145745         0.260310        -1.127602
 H        -0.641683        -1.010723         0.017843
 H         2.410388        -1.763216         0.890601
 H         2.232818        -1.919837        -0.944432
 H         5.418343        -0.711668         0.184059
 H         5.037396         1.121526         0.405079
 H         2.921519        -1.095385         2.820781
 H         3.020712         0.464174         3.356719
 H         2.285942         1.586835         1.488373
