19
Iteration:   867
 C        -0.039473         0.067730        -0.136420
 C         1.427270        -0.111678         0.061511
 C         2.211164        -1.375552        -0.018830
 C         3.167220        -0.110122         0.206785
 C         4.559686        -0.140166         0.531293
 O         4.533329         0.196262         2.015184
 C         3.155134        -0.076508         2.424276
 C         2.363219         0.472537         1.244296
 O         2.251802         0.574993        -0.892905
 H        -0.759078        -0.609150         0.384596
 H        -0.334748         1.079859         0.067922
 H        -0.160844        -0.091456        -1.176331
 H         2.127619        -2.141790         0.787449
 H         2.312220        -1.984606        -0.964853
 H         4.987401        -1.168456         0.366251
 H         5.093725         0.688391         0.018695
 H         2.980947        -1.085715         2.639129
 H         3.170042         0.550671         3.349157
 H         2.315342         1.557635         1.373830
