19
Iteration:  4972charge 0 multiplicity 1
 C        -0.194443         0.056703        -0.025595
 C         1.409060        -0.127772         0.088307
 C         2.444038        -1.300012        -0.089991
 C         3.225674         0.058461         0.123829
 C         4.618061         0.162722         0.566807
 O         4.427056        -0.323410         1.925517
 C         3.085815        -0.211828         2.395780
 C         2.340441         0.549095         1.291033
 O         2.309850         0.663037        -0.862565
 H        -0.329770         0.952207        -0.679934
 H        -0.815440        -0.740945        -0.392379
 H        -0.610703         0.108643         0.943303
 H         2.422061        -2.037281         0.724297
 H         2.807910        -1.769074        -1.075794
 H         5.399349        -0.470155         0.144626
 H         4.881554         1.155306         0.596789
 H         2.606221        -1.214785         2.568413
 H         3.045408         0.494002         3.294125
 H         2.085510         1.674021         1.220115
