19
Iteration:  3233
 C        -0.021307         0.045740        -0.151200
 C         1.413240        -0.108442         0.212104
 C         2.271873        -1.363046         0.171260
 C         3.147531        -0.061014         0.073218
 C         4.556205        -0.079951         0.486183
 O         4.534571        -0.190280         1.996726
 C         3.055535         0.156502         2.442096
 C         2.363748         0.702246         1.140123
 O         2.282511         0.445914        -0.901109
 H        -0.666321        -0.769647         0.226657
 H        -0.553893         1.049541         0.181198
 H         0.054541        -0.175912        -1.231008
 H         2.101524        -1.846309         1.082708
 H         2.304933        -1.816005        -0.838259
 H         5.156400        -0.754320        -0.206731
 H         5.018164         0.871359         0.347651
 H         2.784717        -0.786919         2.774490
 H         3.325558         0.737256         3.280725
 H         2.383753         1.728923         0.926243
