19
Iteration:  3029
 C        -0.138725         0.136209        -0.005628
 C         1.397501        -0.155679         0.136673
 C         2.157078        -1.403605         0.065589
 C         3.207156        -0.155646         0.051287
 C         4.693111        -0.060909         0.571397
 O         4.487704         0.010997         2.004230
 C         3.063066         0.098717         2.389205
 C         2.392172         0.538891         1.143209
 O         2.385642         0.472399        -0.939991
 H        -0.711633        -0.399683         0.740832
 H        -0.451408         1.272429         0.196069
 H        -0.581141        -0.005248        -0.967647
 H         2.175338        -2.055493         0.942804
 H         2.102285        -1.956190        -0.899845
 H         5.281522        -0.888298         0.415264
 H         5.247134         0.825774         0.288204
 H         2.913708        -1.030773         2.466820
 H         2.905283         0.752143         3.292225
 H         2.319479         1.611960         0.829792
