19
Iteration:  3823
 C        -0.167147        -0.057238        -0.017059
 C         1.346421        -0.016477         0.090529
 C         2.262506        -1.272170         0.023155
 C         3.210182         0.000435         0.022709
 C         4.602196         0.052022         0.594136
 O         4.478796        -0.305634         2.008198
 C         3.050745         0.040945         2.431171
 C         2.399476         0.545030         1.191707
 O         2.407078         0.576927        -0.998485
 H        -0.525884        -1.103346        -0.449819
 H        -0.587947         0.064179         1.027351
 H        -0.348084         0.830913        -0.547737
 H         2.274867        -1.947866         0.898273
 H         2.219161        -1.901344        -0.947237
 H         5.237039        -0.703034         0.143151
 H         5.164215         1.097719         0.702539
 H         2.736581        -0.781502         2.988605
 H         3.203657         0.811861         3.180535
 H         2.426250         1.615762         1.357697
