19
Iteration:  3641
 C        -0.051684         0.071603        -0.034125
 C         1.380354        -0.043235         0.201316
 C         2.144810        -1.328060         0.036997
 C         3.186680        -0.150546         0.129281
 C         4.612610        -0.162201         0.539103
 O         4.486394         0.190287         1.945949
 C         3.050917        -0.090473         2.406445
 C         2.350138         0.543213         1.171521
 O         2.444477         0.485747        -0.986340
 H        -0.446991         1.130720         0.068750
 H        -0.488408        -0.297063        -0.923575
 H        -0.692148        -0.563341         0.660861
 H         2.079514        -2.009501         0.862611
 H         2.209502        -1.891138        -0.934652
 H         5.271841        -1.111395         0.478327
 H         5.216813         0.756897         0.282232
 H         2.897150        -1.128525         2.728343
 H         3.083310         0.438823         3.398488
 H         2.319095         1.622231         1.166621
