19
Iteration:  2869
 C        -0.075800         0.135905         0.065227
 C         1.476072        -0.063298         0.186030
 C         2.390305        -1.360760         0.104575
 C         3.261252        -0.097950         0.051704
 C         4.658937         0.030112         0.606119
 O         4.372859        -0.245491         1.974828
 C         2.982058         0.091044         2.350536
 C         2.368070         0.625056         1.168226
 O         2.254429         0.440306        -1.068111
 H        -0.531118         0.221288         1.083797
 H        -0.242864         0.894071        -0.670847
 H        -0.455243        -0.789872        -0.459848
 H         2.343335        -2.216913         0.808950
 H         2.266753        -1.712250        -0.913281
 H         5.449083        -0.742819         0.294389
 H         5.097286         0.994952         0.491830
 H         2.415627        -0.886597         2.836152
 H         3.116838         0.917579         3.105853
 H         2.196544         1.712755         1.074890
