19
Iteration:  3607charge 0 multiplicity 1
 C        -0.098960         0.185031        -0.119667
 C         1.346097        -0.101871         0.136497
 C         2.289814        -1.409692         0.072215
 C         3.179309        -0.208883         0.085177
 C         4.633793        -0.055451         0.541337
 O         4.547371         0.068360         2.007989
 C         3.075189         0.013271         2.501054
 C         2.380671         0.500483         1.164932
 O         2.271134         0.468690        -0.995234
 H        -0.400703         0.922234         0.685738
 H        -0.239598         0.563954        -1.118037
 H        -0.690047        -0.721480         0.202449
 H         2.226730        -1.915617         1.039587
 H         2.272303        -2.048010        -0.839098
 H         5.304357        -0.969601         0.279030
 H         5.083040         0.875904         0.061834
 H         2.699384        -0.957790         2.895598
 H         3.052765         0.849324         3.298537
 H         2.351114         1.570828         1.260860
