19
Iteration:  3772
 C        -0.146180         0.088318        -0.052074
 C         1.350239        -0.115609         0.171034
 C         2.406823        -1.325584         0.080079
 C         3.203983         0.002305         0.033320
 C         4.642851         0.013796         0.557132
 O         4.458035        -0.292221         2.013076
 C         3.112275         0.041094         2.468123
 C         2.303695         0.587764         1.146540
 O         2.270832         0.554919        -1.015944
 H        -0.175253        -0.187201        -1.122486
 H        -0.750207        -0.673520         0.373404
 H        -0.356829         1.130826         0.107209
 H         2.553887        -1.971455         0.947191
 H         2.273278        -1.973784        -0.845523
 H         5.392475        -0.736259         0.300129
 H         5.124228         0.914445         0.494881
 H         2.730874        -0.884799         3.101282
 H         3.270876         0.826978         3.283842
 H         2.211284         1.680029         1.105152
