19
Iteration:  3985charge 0 multiplicity 1
 C        -0.027046         0.101910        -0.077060
 C         1.412742        -0.091314         0.086072
 C         2.254696        -1.347037         0.045247
 C         3.176502        -0.153989         0.117685
 C         4.598982        -0.073446         0.520283
 O         4.490104        -0.018377         2.024230
 C         3.096111        -0.005358         2.428102
 C         2.359660         0.509104         1.238421
 O         2.291121         0.581738        -0.963953
 H        -0.385627         0.438119        -1.086810
 H        -0.617250        -0.879355        -0.039716
 H        -0.445984         0.695857         0.679696
 H         2.191134        -1.975588         0.870220
 H         2.306874        -1.977094        -0.859121
 H         5.245535        -0.948873         0.290788
 H         5.032678         0.830618         0.102541
 H         2.792390        -1.012074         2.949125
 H         2.893093         0.754040         3.173651
 H         2.454958         1.624077         1.203428
