19
Iteration:  1983
 C        -0.044320         0.061071        -0.099711
 C         1.441974        -0.118706         0.133778
 C         2.334215        -1.321762         0.190288
 C         3.200575        -0.051902         0.059596
 C         4.602953         0.060032         0.517506
 O         4.476804        -0.210879         1.945690
 C         3.016009         0.054582         2.439130
 C         2.325300         0.631619         1.239982
 O         2.263604         0.443517        -1.002088
 H        -0.574484         0.107211         0.836065
 H        -0.077594         1.019922        -0.659401
 H        -0.487446        -0.756755        -0.715103
 H         2.439722        -1.716111         1.172561
 H         2.335218        -2.038922        -0.623877
 H         5.084037        -0.733953        -0.038385
 H         5.076021         1.017052         0.473623
 H         2.725776        -0.988821         2.830657
 H         3.357798         0.728717         3.212688
 H         2.176368         1.691792         1.195377
