19
Iteration:   450
 C        -0.091786         0.014957         0.050875
 C         1.426163        -0.068900         0.065735
 C         2.411688        -1.375392         0.051866
 C         3.275288        -0.078204         0.131763
 C         4.664255         0.132933         0.638834
 O         4.361166        -0.441212         1.938889
 C         3.026021         0.266424         2.465442
 C         2.378786         0.538178         1.143836
 O         2.203680         0.508323        -1.023116
 H        -0.545519        -0.306329         0.894299
 H        -0.510272         1.056414        -0.351554
 H        -0.307072        -0.705819        -0.815872
 H         2.309286        -2.249371         0.677162
 H         2.431367        -1.750636        -0.972652
 H         5.519329        -0.387805         0.194263
 H         5.120647         1.287652         0.701621
 H         2.666556        -0.409755         3.209052
 H         3.212064         1.401898         2.907228
 H         2.399229         1.650250         0.874710
