19
Iteration:  1613charge 0 multiplicity 1
 C        -0.047104         0.178521        -0.173132
 C         1.409752        -0.144417         0.162808
 C         2.227157        -1.420380         0.063738
 C         3.202503        -0.178041         0.143240
 C         4.621160        -0.144093         0.491376
 O         4.497472         0.195767         1.904728
 C         3.079931         0.031261         2.389857
 C         2.221229         0.431273         1.292098
 O         2.389821         0.513064        -0.827610
 H        -0.806671        -0.506643         0.336842
 H        -0.265116         1.089168         0.268254
 H        -0.170222        -0.051686        -1.209845
 H         2.282576        -2.244759         0.828706
 H         2.210974        -1.758500        -1.007520
 H         5.178080        -1.108145         0.254615
 H         5.229007         0.686878         0.088698
 H         2.803566        -1.079855         2.713570
 H         3.015288         0.868141         3.158888
 H         2.177732         1.559422         1.450380
