19
Iteration:  4874
 C        -0.011984         0.115127        -0.055220
 C         1.405176        -0.076873         0.121457
 C         2.332936        -1.367473        -0.155528
 C         3.148967        -0.037344         0.109473
 C         4.542772         0.033507         0.575280
 O         4.517018         0.042937         1.982831
 C         3.074204        -0.248798         2.381716
 C         2.318097         0.402334         1.344348
 O         2.274011         0.634005        -0.828973
 H        -0.151655         1.287600         0.211067
 H        -0.136397        -0.059363        -1.155327
 H        -0.595433        -0.695418         0.434681
 H         2.207239        -2.220792         0.490074
 H         2.378382        -1.652855        -1.272885
 H         5.122410        -0.872693         0.115209
 H         5.032191         0.961374         0.194172
 H         2.898234        -1.327741         2.462094
 H         2.962176         0.193771         3.446273
 H         2.327622         1.555592         1.316558
