19
Iteration:  4604
 C        -0.018412         0.150171        -0.053053
 C         1.456061        -0.155995         0.132720
 C         2.321331        -1.363784        -0.112214
 C         3.098630        -0.014145         0.067841
 C         4.578395        -0.015886         0.530533
 O         4.430545         0.025380         2.003697
 C         3.118921        -0.294134         2.484861
 C         2.306960         0.343391         1.325168
 O         2.324571         0.790821        -0.931634
 H        -0.346188         1.023050        -0.701573
 H        -0.269367        -0.729542        -0.645108
 H        -0.495923         0.278318         0.907178
 H         2.414027        -2.115547         0.733047
 H         2.349301        -1.873638        -1.242783
 H         5.124677        -0.846011         0.104330
 H         5.031810         0.938263         0.350830
 H         3.062123        -1.438904         2.651790
 H         2.920164         0.329681         3.312519
 H         2.207939         1.429320         1.422631
