19
Iteration:  3567
 C        -0.089954         0.131540        -0.096548
 C         1.432840        -0.114855         0.103420
 C         2.293841        -1.397719         0.175109
 C         3.197953        -0.189133         0.137431
 C         4.573743         0.043289         0.467166
 O         4.529383        -0.216778         1.966659
 C         3.039779         0.161043         2.437901
 C         2.350507         0.619909         1.254276
 O         2.315354         0.455627        -0.984182
 H        -0.612887         0.638095         0.742258
 H        -0.351439         0.748997        -0.958728
 H        -0.689942        -0.783954        -0.422384
 H         2.120212        -1.946348         1.062315
 H         2.442001        -2.039638        -0.721688
 H         5.326574        -0.643108         0.157248
 H         4.771773         1.087006         0.168643
 H         2.770908        -0.690457         2.967661
 H         3.135276         0.904573         3.163205
 H         2.416320         1.681586         0.930218
