19
Iteration:  4253
 C        -0.065876         0.055138        -0.076558
 C         1.380445        -0.028613         0.078645
 C         2.304707        -1.276031        -0.064298
 C         3.240917        -0.003949         0.104927
 C         4.678314        -0.025607         0.582748
 O         4.504159        -0.056358         2.011661
 C         3.069275        -0.239560         2.445694
 C         2.344904         0.483838         1.297927
 O         2.213547         0.617684        -0.934287
 H        -0.532203         0.730880         0.652046
 H        -0.089166         0.547888        -1.130240
 H        -0.751344        -0.864458        -0.050096
 H         2.383426        -2.085318         0.667528
 H         2.354971        -1.774318        -1.051941
 H         5.338882        -0.855757         0.420329
 H         5.120744         0.973560         0.302111
 H         2.767419        -1.361432         2.572907
 H         2.777960         0.400453         3.274118
 H         2.139704         1.568498         1.232506
