19
Iteration:  4167charge 0 multiplicity 1
 C        -0.104449         0.050220        -0.098365
 C         1.357446        -0.079891         0.076658
 C         2.393960        -1.312068         0.112731
 C         3.211589        -0.035721         0.085216
 C         4.684152         0.122481         0.609786
 O         4.452558        -0.339284         1.963691
 C         3.036284        -0.037752         2.446792
 C         2.380857         0.502606         1.119623
 O         2.229392         0.660032        -0.942144
 H        -0.533269        -0.538156         0.712098
 H        -0.345610         1.136065         0.027813
 H        -0.404712        -0.269100        -1.057700
 H         2.468023        -1.916602         1.024145
 H         2.577437        -1.948766        -0.820860
 H         5.479297        -0.521581         0.201628
 H         5.040895         1.109455         0.321585
 H         2.551188        -0.991049         2.807530
 H         2.865980         0.544926         3.433137
 H         2.293489         1.578230         1.324376
