19
Iteration:  1797charge 0 multiplicity 1
 C        -0.120019         0.023651        -0.206650
 C         1.356108        -0.043006         0.135894
 C         2.412298        -1.327299         0.219382
 C         3.204484        -0.045271         0.102248
 C         4.688041         0.039154         0.519302
 O         4.455084        -0.267677         1.977308
 C         3.100187         0.079514         2.418094
 C         2.350206         0.625026         1.178806
 O         2.209352         0.471702        -0.930775
 H        -0.800493         0.069994         0.776154
 H        -0.356478         0.936966        -0.722958
 H        -0.469442        -0.874081        -0.742142
 H         2.466686        -1.715149         1.223077
 H         2.201691        -1.922322        -0.665688
 H         5.354094        -0.893971         0.187613
 H         5.032755         1.048152         0.229378
 H         2.794027        -0.840280         2.686728
 H         3.126013         0.840597         3.221140
 H         2.546933         1.695467         1.209448
