19
Iteration:  3427charge 0 multiplicity 1
 C        -0.114231         0.179188        -0.148122
 C         1.378590        -0.117598         0.120968
 C         2.244039        -1.439142         0.272242
 C         3.183013        -0.141727         0.121553
 C         4.565870        -0.012588         0.559534
 O         4.544474        -0.057781         1.972785
 C         3.145992         0.065792         2.406413
 C         2.341364         0.624527         1.135784
 O         2.337421         0.397978        -1.002232
 H        -0.686200        -0.690233         0.037508
 H        -0.572917         0.936075         0.450912
 H        -0.186276         0.534222        -1.155276
 H         2.639168        -1.989884         1.131402
 H         2.091594        -2.151857        -0.623113
 H         5.156683        -0.812317         0.172108
 H         4.940202         1.054021         0.228161
 H         2.685133        -0.901117         2.773073
 H         3.069333         0.784349         3.241178
 H         2.246571         1.724220         1.145791
