19
Iteration:  3148charge 0 multiplicity 1
 C        -0.150436         0.136321         0.038399
 C         1.354719        -0.160182         0.167010
 C         2.371775        -1.367799         0.094240
 C         3.247227        -0.131181         0.041442
 C         4.636774         0.006779         0.490997
 O         4.403324        -0.199179         2.042003
 C         3.015541         0.127323         2.427618
 C         2.415945         0.586136         1.153146
 O         2.332459         0.497153        -1.041490
 H        -0.659203        -0.107351         0.945241
 H        -0.302393         1.242185        -0.211495
 H        -0.547589        -0.338355        -0.782851
 H         2.613162        -2.156616         0.905582
 H         2.289110        -2.065827        -0.790237
 H         5.395921        -0.753879         0.006826
 H         5.002623         1.042701         0.393026
 H         2.643308        -0.808863         2.911165
 H         2.955724         0.976399         3.185157
 H         2.561362         1.663202         1.025346
