19
Iteration:  1728
 C        -0.116905        -0.031609         0.013363
 C         1.399167        -0.159484         0.099086
 C         2.290515        -1.322586         0.052302
 C         3.264957        -0.121249         0.085952
 C         4.658164         0.086094         0.622503
 O         4.383644        -0.306592         2.040748
 C         3.057280         0.154818         2.401237
 C         2.438894         0.626925         1.080674
 O         2.258041         0.575624        -1.004380
 H        -0.436425        -0.012404         1.033126
 H        -0.343068         0.999000        -0.335436
 H        -0.622332        -0.854134        -0.501428
 H         2.478674        -1.862571         0.963623
 H         2.449108        -1.859833        -0.854631
 H         5.283832        -0.706363         0.212537
 H         5.177062         1.063598         0.704026
 H         2.479586        -0.599576         2.873495
 H         3.278577         0.988563         3.057264
 H         2.502757         1.573568         0.554038
