19
Iteration:   372charge 0 multiplicity 1
 C        -0.069770         0.008875        -0.087510
 C         1.396881        -0.109739         0.142892
 C         2.200059        -1.381403         0.089326
 C         3.197583        -0.116388         0.057766
 C         4.584354         0.033233         0.583334
 O         4.493583        -0.098455         2.035762
 C         3.129615         0.024441         2.397017
 C         2.424015         0.611942         1.193706
 O         2.286999         0.541618        -0.990001
 H        -0.661814        -0.515950         0.635000
 H        -0.389320         1.025225        -0.230341
 H        -0.237548        -0.520609        -1.047903
 H         2.217896        -1.899368         1.039890
 H         2.283413        -2.105422        -0.731056
 H         5.163888        -0.777007         0.278778
 H         4.919392         1.091667         0.352333
 H         2.744953        -0.920356         2.816491
 H         3.114557         0.857612         3.204326
 H         2.428781         1.659808         0.984784
