19
Iteration:  3676
 C        -0.098148         0.097479        -0.071754
 C         1.372229        -0.136810         0.062220
 C         2.226714        -1.360238         0.014158
 C         3.187195        -0.123880         0.108943
 C         4.654935        -0.205807         0.614341
 O         4.525931         0.105486         2.002984
 C         3.105319        -0.010188         2.459314
 C         2.347051         0.523719         1.131731
 O         2.269060         0.572923        -0.880815
 H        -0.150085         1.001664        -0.681556
 H        -0.448829        -0.757911        -0.659534
 H        -0.481358         0.353101         1.009243
 H         2.341553        -2.012710         0.829486
 H         2.353903        -1.873971        -0.921224
 H         5.158526        -1.129524         0.180635
 H         5.210396         0.734070         0.132766
 H         2.894992        -1.010857         2.695682
 H         2.961613         0.662929         3.272191
 H         2.318392         1.610843         0.917877
