19
Iteration:  1660
 C        -0.114201         0.081718        -0.197388
 C         1.298494        -0.036070         0.116929
 C         2.206779        -1.377662         0.102551
 C         3.188100        -0.229976         0.136906
 C         4.704897         0.046702         0.593265
 O         4.571202         0.027391         1.980532
 C         3.086883         0.010051         2.442185
 C         2.373064         0.497153         1.203690
 O         2.282677         0.476716        -0.949594
 H        -0.592018        -0.719433         0.190245
 H        -0.375679         0.970684         0.442887
 H        -0.140036         0.075039        -1.298885
 H         2.021713        -1.876810         1.061863
 H         1.977745        -2.058427        -0.723085
 H         5.329670        -0.741845         0.363121
 H         5.098935         0.978472         0.038797
 H         2.882886        -1.023343         2.753545
 H         3.126644         0.683420         3.254991
 H         2.505554         1.582360         1.196665
