19
Iteration:    25charge 0 multiplicity 1
 C        -0.042986         0.162135        -0.089646
 C         1.389902        -0.181052         0.131631
 C         2.097712        -1.532108        -0.031613
 C         3.193998        -0.212911         0.119896
 C         4.649022         0.139483         0.534675
 O         4.524627         0.073808         1.993621
 C         3.083152         0.090015         2.481828
 C         2.318517         0.408934         1.219513
 O         2.413679         0.454784        -0.910021
 H        -0.614605        -0.172619         0.702984
 H        -0.170595         1.347456        -0.113364
 H        -0.521288        -0.229983        -1.101621
 H         1.967865        -2.388967         0.640474
 H         2.136077        -1.883825        -1.106836
 H         5.439581        -0.562950         0.255832
 H         4.788685         1.178176         0.275178
 H         2.924119        -0.888153         2.900129
 H         2.949594         0.931927         3.193442
 H         2.247642         1.549564         1.177587
