19
Iteration:   774charge 0 multiplicity 1
 C        -0.126440         0.085678         0.027477
 C         1.425760        -0.176039         0.196480
 C         2.305237        -1.388983         0.027885
 C         3.244965        -0.144117         0.030521
 C         4.652584         0.043960         0.558805
 O         4.479682        -0.037844         2.045170
 C         2.990221        -0.012552         2.361673
 C         2.348055         0.602841         1.157654
 O         2.353404         0.533303        -0.953765
 H        -0.826218        -0.225148         0.888537
 H        -0.299949         1.213819        -0.063212
 H        -0.586422        -0.386413        -0.909909
 H         2.443102        -2.254979         0.683634
 H         2.202324        -1.893655        -0.904728
 H         5.201554        -0.935519         0.197890
 H         5.159040         0.962011         0.129123
 H         2.541736        -1.009066         2.528401
 H         2.931864         0.619317         3.188432
 H         2.250124         1.692130         1.030713
