19
Iteration:  2493charge 0 multiplicity 1
 C        -0.046365         0.039371        -0.065597
 C         1.424742        -0.066269         0.142849
 C         2.262302        -1.341912         0.123102
 C         3.173978        -0.104873         0.113758
 C         4.554963        -0.172844         0.521298
 O         4.470172        -0.038227         1.931241
 C         3.041551         0.101874         2.446312
 C         2.313311         0.595675         1.200564
 O         2.405359         0.520018        -0.993044
 H        -0.503786        -0.623647         0.719733
 H        -0.451325         1.030366         0.033394
 H        -0.482421        -0.330065        -1.063843
 H         2.263774        -1.889749         1.085691
 H         2.258321        -1.996708        -0.731011
 H         5.254431        -1.010319         0.473811
 H         5.094095         0.704434         0.024690
 H         2.736459        -0.867673         2.695712
 H         3.240148         0.774159         3.359606
 H         2.314760         1.729255         1.151774
