19
Iteration:   244charge 0 multiplicity 1
 C        -0.122448        -0.044339        -0.078974
 C         1.382259        -0.105053         0.049100
 C         2.384964        -1.374829        -0.003686
 C         3.183873        -0.110837         0.083992
 C         4.602164        -0.149259         0.505793
 O         4.437420        -0.074345         1.994483
 C         3.087676         0.173556         2.487632
 C         2.348240         0.525372         1.234152
 O         2.308621         0.634341        -0.873675
 H        -0.436756        -0.191563         0.871720
 H        -0.410573         1.102688        -0.383033
 H        -0.560082        -0.776232        -0.883079
 H         2.480716        -2.114895         0.890433
 H         2.329962        -1.805723        -1.008473
 H         5.178469        -1.128527         0.293758
 H         5.288138         0.592627         0.025019
 H         2.789652        -0.620079         3.190516
 H         3.118844         1.145090         3.074144
 H         2.306530         1.700735         1.214085
