19
Iteration:  2463
 C        -0.147407         0.218172        -0.222602
 C         1.360583        -0.080230         0.141005
 C         2.124215        -1.469640         0.139996
 C         3.225734        -0.174292         0.138937
 C         4.618937         0.047818         0.492966
 O         4.556573         0.052519         1.983741
 C         3.133091         0.014456         2.437024
 C         2.418456         0.486355         1.217722
 O         2.322422         0.411104        -0.913745
 H        -0.745599        -0.023414         0.597893
 H        -0.285421         1.247106        -0.587706
 H        -0.361443        -0.499847        -1.018182
 H         2.024980        -2.039005         1.141961
 H         2.135477        -2.060587        -0.787763
 H         5.423376        -0.782722         0.509188
 H         4.829965         1.020808         0.150040
 H         2.917741        -1.077208         2.706299
 H         3.159706         0.487396         3.453163
 H         2.461959         1.635759         1.127892
