19
Iteration:  3656
 C        -0.094811         0.097531        -0.048026
 C         1.384294        -0.068024         0.194881
 C         2.238176        -1.367149         0.026391
 C         3.171113        -0.183992         0.002519
 C         4.609190        -0.135480         0.551518
 O         4.444389         0.158703         1.998310
 C         3.080086        -0.011986         2.429467
 C         2.392524         0.498284         1.274700
 O         2.407263         0.541945        -0.996046
 H        -0.402677         1.094757        -0.328920
 H        -0.201821        -0.682347        -0.939931
 H        -0.550021        -0.234690         1.014539
 H         2.242993        -2.141417         0.828324
 H         1.915997        -1.731118        -0.906394
 H         4.947398        -1.163788         0.447682
 H         5.237779         0.540535        -0.154284
 H         2.812728        -1.041236         2.716599
 H         2.839172         0.438143         3.358915
 H         2.593595         1.610631         1.301821
