19
Iteration:  4201charge 0 multiplicity 1
 C        -0.033025         0.032061        -0.094233
 C         1.430278        -0.074529         0.198612
 C         2.203541        -1.319133        -0.057876
 C         3.211405        -0.036448         0.108364
 C         4.631910         0.156300         0.549830
 O         4.446456        -0.233960         1.944270
 C         3.031535        -0.093885         2.526400
 C         2.326351         0.482954         1.268465
 O         2.377752         0.598643        -0.972612
 H        -0.438493         0.176359         0.935512
 H        -0.368039         0.944481        -0.611659
 H        -0.338113        -0.848980        -0.494785
 H         2.350231        -2.197993         0.580927
 H         2.440760        -1.582980        -1.170751
 H         5.224936        -0.715966         0.131630
 H         4.937465         1.172696         0.477138
 H         2.660151        -1.079416         2.650742
 H         3.022031         0.772644         3.322924
 H         2.124563         1.590601         1.190871
