19
Iteration:   810charge 0 multiplicity 1
 C        -0.046602         0.191982        -0.134262
 C         1.387899        -0.109846         0.040958
 C         2.210150        -1.467386        -0.031544
 C         3.193212        -0.256655         0.121520
 C         4.526884        -0.007952         0.543645
 O         4.508434         0.285981         2.012820
 C         3.187611        -0.143641         2.453137
 C         2.280957         0.402147         1.299835
 O         2.317755         0.512401        -0.899475
 H        -0.376256        -0.177510         0.722981
 H        -0.076336         1.418585        -0.121586
 H        -0.517711        -0.216764        -1.026868
 H         2.142130        -2.057955         0.865835
 H         2.384943        -1.766381        -1.072735
 H         5.125439        -1.031031         0.396704
 H         5.031277         0.812966        -0.006665
 H         3.014197        -1.144870         2.658181
 H         3.322119         0.347152         3.442672
 H         2.271666         1.581827         1.362953
