19
Iteration:  3450
 C        -0.021254         0.108740        -0.070619
 C         1.399015        -0.151892         0.183243
 C         2.191171        -1.398313         0.142272
 C         3.265592        -0.201447         0.060766
 C         4.638418         0.023405         0.499656
 O         4.397113        -0.118389         1.932683
 C         3.066553         0.201310         2.493035
 C         2.386159         0.617486         1.131886
 O         2.334016         0.415749        -0.960793
 H        -0.570249        -0.767535         0.170068
 H        -0.407215         0.846843         0.677661
 H        -0.174787         0.483134        -1.025551
 H         2.142954        -2.064968         1.057562
 H         2.038143        -2.077843        -0.749900
 H         5.354641        -0.767109         0.333031
 H         4.986981         1.069538         0.073193
 H         2.628609        -0.711594         2.954297
 H         3.022407         1.005579         3.273067
 H         2.597965         1.664759         0.952344
