19
Iteration:   472charge 0 multiplicity 1
 C        -0.061582         0.039716        -0.021533
 C         1.383885        -0.187887         0.054378
 C         2.337491        -1.383406        -0.003774
 C         3.161557        -0.065881         0.014145
 C         4.565554         0.093882         0.621166
 O         4.433838        -0.267338         2.022346
 C         3.168159         0.148160         2.443415
 C         2.318615         0.585731         1.212859
 O         2.326135         0.483585        -0.966923
 H        -0.479814        -0.331989         0.829823
 H        -0.055431         1.222443        -0.031537
 H        -0.620365        -0.295031        -0.963384
 H         2.232131        -2.020315         0.870696
 H         2.373018        -2.063710        -0.842573
 H         5.463518        -0.449637         0.272294
 H         4.885102         1.272879         0.520884
 H         2.642799        -0.600762         2.998622
 H         3.218790         1.166271         3.103847
 H         2.121190         1.698501         1.056112
