19
Iteration:  2757charge 0 multiplicity 1
 C        -0.106711         0.103563        -0.166803
 C         1.305681        -0.090291         0.144846
 C         2.165250        -1.413503         0.113824
 C         3.137122        -0.176475         0.136302
 C         4.616036        -0.052785         0.488034
 O         4.550966        -0.008689         1.951702
 C         3.177533         0.101114         2.490074
 C         2.351689         0.586638         1.247393
 O         2.391467         0.464662        -0.919088
 H        -0.651893        -0.807565        -0.091649
 H        -0.619504         0.969763         0.423484
 H        -0.106861         0.343000        -1.207909
 H         2.147206        -2.190953         0.821950
 H         2.184601        -1.850105        -0.896125
 H         5.191446        -0.868222         0.149198
 H         5.045278         0.857041         0.051942
 H         2.740084        -0.969430         2.763199
 H         3.129610         0.677641         3.431406
 H         2.530587         1.682393         1.146327
