19
Iteration:  2497charge 0 multiplicity 1
 C        -0.075218         0.027284        -0.044891
 C         1.435047        -0.046043         0.135726
 C         2.313802        -1.352289         0.101793
 C         3.168488        -0.102502         0.103695
 C         4.560931        -0.167371         0.521339
 O         4.445715        -0.052600         1.949164
 C         3.048149         0.125817         2.451343
 C         2.357571         0.634791         1.197304
 O         2.390271         0.506489        -0.982881
 H        -0.580849        -0.594653         0.638457
 H        -0.597040         1.015094         0.119522
 H        -0.412941        -0.296659        -0.986579
 H         2.215468        -1.990089         1.045628
 H         2.344163        -2.020428        -0.791462
 H         5.253148        -1.119698         0.363485
 H         5.149465         0.543674         0.001326
 H         2.605611        -0.930216         2.633469
 H         3.119605         0.802832         3.301841
 H         2.251187         1.734850         1.168423
