19
Iteration:   784
 C        -0.110950         0.157903        -0.034198
 C         1.337785        -0.194954         0.205724
 C         2.281595        -1.428314        -0.006745
 C         3.223452        -0.121063         0.023241
 C         4.658650         0.016351         0.608614
 O         4.525549         0.085592         1.966805
 C         2.941457        -0.042497         2.420931
 C         2.383272         0.459619         1.158751
 O         2.334893         0.533942        -0.934255
 H        -0.636553        -0.236288         0.970728
 H        -0.096451         1.250636        -0.094451
 H        -0.556768        -0.320925        -0.964905
 H         2.350977        -2.055158         0.902039
 H         2.304154        -1.877413        -0.982372
 H         5.310767        -0.869782         0.293699
 H         5.245508         0.910651         0.229932
 H         2.649128        -1.094738         2.761743
 H         3.037694         0.532589         3.299299
 H         2.465424         1.524611         1.098854
