19
Iteration:  1389charge 0 multiplicity 1
 C        -0.091610         0.113781         0.014781
 C         1.462454        -0.125352         0.080727
 C         2.245097        -1.405609         0.032335
 C         3.204386        -0.178392         0.113041
 C         4.587645        -0.043595         0.457030
 O         4.425824         0.127395         2.057057
 C         3.036076        -0.020361         2.381875
 C         2.349815         0.555126         1.186363
 O         2.406676         0.476900        -0.913982
 H        -0.526068        -0.240302         0.910417
 H        -0.220596         1.221457        -0.178652
 H        -0.544884        -0.336207        -0.891410
 H         2.204849        -2.068104         0.878318
 H         2.281527        -1.779507        -0.993049
 H         5.089786        -0.994067         0.269414
 H         5.165586         0.773394         0.055686
 H         2.817760        -1.195444         2.502039
 H         2.888546         0.411264         3.382366
 H         2.424299         1.635055         1.137779
