19
Iteration:  4441
 C        -0.023021        -0.024075        -0.047127
 C         1.406053        -0.130080         0.132869
 C         2.347471        -1.246080        -0.027073
 C         3.132190         0.066083         0.122291
 C         4.642948         0.106452         0.549496
 O         4.394886        -0.363909         1.902637
 C         3.075825        -0.091353         2.466829
 C         2.268086         0.518894         1.291226
 O         2.352537         0.678215        -0.997392
 H        -0.325743         1.001019         0.390637
 H        -0.321233        -0.263764        -1.096327
 H        -0.522696        -0.624751         0.687937
 H         2.575513        -1.860809         0.737942
 H         2.478243        -1.574476        -1.062900
 H         5.271266        -0.711865         0.136374
 H         5.320767         1.038370         0.692191
 H         2.636483        -0.922937         3.016396
 H         3.156136         0.757558         3.170451
 H         1.998891         1.566899         1.525738
