19
Iteration:  4096charge 0 multiplicity 1
 C        -0.113448        -0.004888        -0.056089
 C         1.452484        -0.064526        -0.014703
 C         2.227738        -1.300186         0.066563
 C         3.206935        -0.076852         0.113086
 C         4.633289         0.007019         0.611712
 O         4.489832        -0.232487         2.011152
 C         3.132629        -0.012048         2.457514
 C         2.361352         0.557080         1.180491
 O         2.248959         0.647008        -0.952867
 H        -0.332577        -1.091898        -0.385720
 H        -0.675865         0.284326         0.841957
 H        -0.269764         0.666787        -0.941697
 H         2.093656        -1.988708         0.871465
 H         2.267157        -1.691546        -0.958856
 H         5.418577        -0.596843         0.169935
 H         5.057889         0.995659         0.440909
 H         2.815593        -0.961861         2.994757
 H         2.969153         0.668013         3.231476
 H         2.448041         1.653528         1.053296
