19
Iteration:   482charge 0 multiplicity 1
 C        -0.103724         0.081011        -0.032844
 C         1.405353        -0.220741         0.089779
 C         2.324237        -1.437322         0.105912
 C         3.179701        -0.044002         0.058240
 C         4.563253         0.075120         0.542131
 O         4.490552        -0.193440         2.006407
 C         3.039975         0.125829         2.442622
 C         2.350720         0.500201         1.179501
 O         2.367670         0.558694        -0.985092
 H        -0.721689        -0.335344         0.683859
 H        -0.325952         1.219196         0.045204
 H        -0.401967        -0.258939        -1.080667
 H         2.279394        -2.006301         1.030987
 H         2.371585        -1.921547        -0.866982
 H         5.303702        -0.619847         0.137387
 H         4.940719         1.144129         0.390766
 H         2.767640        -0.777090         2.932802
 H         3.065385         0.955109         3.259249
 H         2.302973         1.624045         1.052789
