19
Iteration:  1588
 C        -0.089267         0.107217        -0.100218
 C         1.403092        -0.106085         0.075450
 C         2.264139        -1.382511         0.066721
 C         3.191796        -0.160150         0.083291
 C         4.555652        -0.120729         0.613839
 O         4.484433         0.199789         2.008082
 C         3.126596        -0.085361         2.421900
 C         2.397066         0.515546         1.225941
 O         2.281976         0.535251        -0.993260
 H        -0.768092        -0.259066         0.752413
 H        -0.158271         1.189998         0.001077
 H        -0.420506        -0.356834        -1.015557
 H         2.345520        -1.940392         0.998265
 H         2.228240        -2.004909        -0.817705
 H         4.993181        -1.199723         0.494449
 H         5.213837         0.606920         0.174852
 H         2.894396        -1.214536         2.477885
 H         2.946526         0.477861         3.378630
 H         2.697150         1.574188         1.225258
