19
Iteration:  1021charge 0 multiplicity 1
 C        -0.107139         0.045261        -0.201905
 C         1.277069        -0.065491         0.116607
 C         2.184247        -1.324798         0.090229
 C         3.210346        -0.121437         0.160328
 C         4.648565         0.015023         0.521516
 O         4.564175        -0.059545         2.048290
 C         3.164920        -0.040815         2.453303
 C         2.346757         0.517721         1.193614
 O         2.331821         0.547915        -0.964194
 H        -0.748818        -0.422318         0.672684
 H        -0.428304         1.014569        -0.280422
 H        -0.350803        -0.511523        -1.130175
 H         2.259351        -1.852475         0.995312
 H         2.005734        -1.822458        -0.827022
 H         5.153453        -0.877266         0.218895
 H         5.098792         0.958657         0.217278
 H         2.975082        -0.977643         2.800447
 H         3.088195         0.648163         3.304413
 H         2.343578         1.562444         1.232889
