19
Iteration:  2405
 C        -0.123982         0.167384        -0.033415
 C         1.419938        -0.114860         0.109497
 C         2.271421        -1.412671         0.131545
 C         3.200282        -0.199300         0.110577
 C         4.589208        -0.103188         0.504379
 O         4.431846         0.115678         1.983495
 C         3.067915        -0.014668         2.385547
 C         2.337844         0.530157         1.177512
 O         2.415716         0.496177        -0.945709
 H        -0.534036         0.133364         1.005961
 H        -0.071493         1.157590        -0.301275
 H        -0.524458        -0.531914        -0.728725
 H         2.170236        -2.063685         0.965176
 H         2.333074        -2.008032        -0.796932
 H         5.178704        -0.975560         0.248636
 H         5.014087         0.674839        -0.088480
 H         2.858841        -0.978858         2.756990
 H         2.865826         0.771225         3.201889
 H         2.423138         1.637905         1.057112
