19
Iteration:   284charge 0 multiplicity 1
 C        -0.128122         0.065686        -0.130779
 C         1.396230        -0.084206         0.188329
 C         2.187212        -1.368766         0.071762
 C         3.190513        -0.237517         0.070407
 C         4.642441        -0.129842         0.591123
 O         4.511437         0.268774         2.042880
 C         3.108314        -0.082433         2.332780
 C         2.405000         0.569516         1.179435
 O         2.326967         0.526023        -0.916485
 H        -0.639306        -0.599240         0.685124
 H        -0.452630         1.056812         0.005311
 H        -0.497917        -0.324643        -1.066954
 H         2.156438        -2.143127         0.733514
 H         2.153914        -1.817711        -0.922452
 H         5.034055        -1.096938         0.619479
 H         5.254901         0.670194         0.116440
 H         2.982027        -1.159328         2.216834
 H         2.847253         0.152023         3.378333
 H         2.556285         1.609789         1.132317
