19
Iteration:  2380charge 0 multiplicity 1
 C        -0.123492        -0.005043         0.006284
 C         1.427637         0.003873         0.133806
 C         2.170307        -1.338603         0.007011
 C         3.244671        -0.167963         0.055685
 C         4.725382        -0.171569         0.682899
 O         4.488503         0.054581         2.059637
 C         3.040549         0.066154         2.403919
 C         2.400412         0.680542         1.144384
 O         2.273977         0.438581        -1.073552
 H        -0.356772        -0.510141         1.032273
 H        -0.326075         1.119856         0.078016
 H        -0.444839        -0.571299        -0.878273
 H         2.111310        -2.055651         0.818505
 H         1.912952        -1.812482        -0.940005
 H         5.162041        -1.102513         0.471989
 H         5.372275         0.598556         0.105052
 H         2.688703        -0.923031         2.629861
 H         2.971986         0.686673         3.246967
 H         2.509098         1.714507         1.000559
