19
Iteration:  4032
 C        -0.036475         0.121396        -0.021515
 C         1.411351        -0.035874         0.014762
 C         2.266280        -1.348655         0.035098
 C         3.221786        -0.122999         0.061211
 C         4.558551         0.016536         0.541227
 O         4.527696        -0.053815         2.027346
 C         3.054239        -0.019510         2.476048
 C         2.293347         0.486437         1.190369
 O         2.343438         0.475463        -0.951795
 H        -0.512658         0.089505        -1.054144
 H        -0.647846        -0.618431         0.436512
 H        -0.263774         1.126189         0.515286
 H         2.285766        -2.086447         0.832558
 H         2.153414        -1.968466        -0.843553
 H         5.227114        -0.691536         0.092915
 H         4.834645         1.060138         0.273028
 H         2.764235        -1.141230         2.897110
 H         3.142129         0.567403         3.400789
 H         2.279852         1.585751         1.224268
