19
Iteration:  3669charge 0 multiplicity 1
 C        -0.071505         0.083260        -0.066724
 C         1.411190        -0.083183         0.143736
 C         2.241648        -1.406073        -0.014027
 C         3.176421        -0.159263         0.061793
 C         4.564681        -0.163879         0.546964
 O         4.497724         0.124067         2.043203
 C         3.119090        -0.015435         2.437649
 C         2.376342         0.526852         1.165411
 O         2.311599         0.586306        -0.916223
 H        -0.245796         1.036914        -0.572380
 H        -0.620334        -0.735431        -0.653043
 H        -0.645278         0.132211         0.868500
 H         2.248621        -2.044538         0.947007
 H         2.285578        -1.974673        -0.940752
 H         5.021442        -1.137661         0.477076
 H         5.271815         0.557142         0.237571
 H         2.889616        -1.114800         2.584657
 H         3.067465         0.742569         3.248163
 H         2.389529         1.632269         1.028536
