19
Iteration:  3910
 C        -0.076182         0.108102        -0.065581
 C         1.366793        -0.039499         0.006851
 C         2.235624        -1.343108         0.014718
 C         3.156234        -0.193258         0.170142
 C         4.591036         0.029600         0.506872
 O         4.520731        -0.086172         2.001693
 C         3.094300         0.014403         2.507071
 C         2.387610         0.460653         1.219207
 O         2.360504         0.543610        -0.920649
 H        -0.521907        -0.384991        -1.006776
 H        -0.574293        -0.498913         0.741460
 H        -0.404474         1.102598        -0.075393
 H         2.080417        -2.077273         0.755987
 H         2.405188        -1.806766        -0.997784
 H         5.320770        -0.613443         0.088736
 H         4.971454         1.029141         0.269358
 H         2.703310        -0.935263         2.827600
 H         2.953736         0.724405         3.269599
 H         2.331146         1.535446         1.075044
