19
Iteration:   581charge 0 multiplicity 1
 C        -0.025734         0.156206        -0.053989
 C         1.451532        -0.183990         0.145140
 C         2.237417        -1.430430        -0.169176
 C         3.153139        -0.199956         0.081461
 C         4.566877        -0.157791         0.580169
 O         4.541310         0.264588         1.994293
 C         3.138564         0.065407         2.478614
 C         2.254674         0.361331         1.295143
 O         2.321788         0.536210        -0.923106
 H        -0.613959        -0.161856         0.751343
 H        -0.111304         1.360804        -0.066748
 H        -0.382148        -0.307137        -1.030098
 H         2.280059        -2.278773         0.542925
 H         2.044136        -1.708646        -1.199901
 H         4.972952        -1.149647         0.588739
 H         5.099387         0.680158         0.173859
 H         3.083511        -0.944028         2.722823
 H         2.999059         0.729423         3.458000
 H         1.930652         1.481994         1.186227
