19
Iteration:  4143
 C        -0.022832         0.012582        -0.080237
 C         1.447848        -0.128091         0.227179
 C         2.361944        -1.254623        -0.027381
 C         3.180565         0.004938         0.101681
 C         4.591370         0.051130         0.592472
 O         4.389463        -0.310130         1.934239
 C         3.086523         0.011975         2.400145
 C         2.288277         0.591438         1.236245
 O         2.316532         0.543170        -0.941199
 H        -0.548401        -0.849809         0.253385
 H        -0.279687         0.891294         0.518200
 H        -0.192565         0.281934        -1.177251
 H         2.497334        -1.971688         0.798768
 H         2.434838        -1.669495        -0.992580
 H         5.208212        -0.580395         0.040226
 H         5.083400         1.000117         0.416025
 H         2.424297        -0.815741         2.880843
 H         3.089094         0.664069         3.269158
 H         2.206067         1.678346         1.255708
