19
Iteration:  3880charge 0 multiplicity 1
 C        -0.086073         0.150241        -0.057429
 C         1.352597        -0.206431         0.229800
 C         2.333633        -1.353646         0.054852
 C         3.183635        -0.058845         0.058382
 C         4.669573         0.049189         0.523834
 O         4.422797        -0.161963         1.989434
 C         3.074700        -0.009917         2.423910
 C         2.307217         0.485432         1.242763
 O         2.347322         0.572341        -1.013705
 H        -0.485830        -0.589268        -0.815455
 H        -0.502760         0.392711         0.894836
 H        -0.014853         1.069632        -0.656679
 H         2.433328        -2.099376         0.910049
 H         2.365500        -1.786212        -1.020352
 H         5.401008        -0.746148         0.190725
 H         5.151280         1.113979         0.482435
 H         2.679593        -0.992827         2.692189
 H         3.020522         0.708324         3.291756
 H         2.029642         1.523183         1.257862
