19
Iteration:  2280charge 0 multiplicity 1
 C        -0.059950         0.125251        -0.194561
 C         1.373450        -0.115055         0.110400
 C         2.232273        -1.381453         0.268161
 C         3.197505        -0.159481         0.139420
 C         4.615473         0.182603         0.510675
 O         4.491917        -0.231207         1.923199
 C         3.090449         0.139043         2.396116
 C         2.371250         0.581218         1.211095
 O         2.280463         0.370728        -0.940440
 H        -0.555900        -0.392273         0.637996
 H        -0.070549         1.280203        -0.451602
 H        -0.268217        -0.322122        -1.195283
 H         2.142040        -1.845561         1.266646
 H         2.228326        -2.116220        -0.519149
 H         5.228681        -0.582053         0.198520
 H         5.071834         1.303347         0.588357
 H         2.733669        -0.741558         2.916306
 H         3.166771         0.935757         3.064183
 H         2.541612         1.607196         1.024560
