19
Iteration:  4325charge 0 multiplicity 1
 C        -0.059184         0.092368        -0.082864
 C         1.304595        -0.152994         0.107350
 C         2.314302        -1.311764        -0.150673
 C         3.235580        -0.056994         0.073305
 C         4.596688         0.023134         0.613617
 O         4.503164        -0.058191         2.077403
 C         3.091990        -0.227929         2.473270
 C         2.402320         0.480242         1.286005
 O         2.236393         0.690985        -0.947935
 H        -0.057049         1.080906        -0.455677
 H        -0.375395        -0.600089        -0.791657
 H        -0.647984         0.230039         0.782453
 H         2.351852        -2.336981         0.441692
 H         2.330863        -1.611857        -1.185816
 H         5.162046        -0.747106         0.037373
 H         5.032137         1.019154         0.355697
 H         2.892840        -1.290496         2.555712
 H         3.048964         0.276202         3.446925
 H         2.216450         1.545652         1.460427
