19
Iteration:  2594
 C        -0.026449         0.085400        -0.131631
 C         1.362647        -0.189000         0.256085
 C         2.275387        -1.271611         0.230172
 C         3.166963        -0.022405         0.020534
 C         4.535970         0.063273         0.523701
 O         4.440841        -0.293472         1.953502
 C         3.082698         0.102853         2.419979
 C         2.351388         0.582656         1.197086
 O         2.397815         0.460535        -1.066334
 H        -0.608342         0.162310         0.794479
 H        -0.080987         1.168061        -0.502989
 H        -0.485586        -0.610028        -0.793202
 H         2.387624        -1.862032         1.175840
 H         2.209341        -1.987889        -0.621738
 H         5.297192        -0.709849         0.118148
 H         5.078388         1.010480         0.504554
 H         2.781517        -0.787920         2.928859
 H         3.238425         0.885645         3.219558
 H         2.204806         1.670485         1.335174
