19
Iteration:  4187charge 0 multiplicity 1
 C        -0.073021         0.046924        -0.055260
 C         1.398812        -0.067324         0.079819
 C         2.331296        -1.365234        -0.028793
 C         3.189244        -0.015249         0.084975
 C         4.595947         0.124803         0.604777
 O         4.464416        -0.286090         1.996782
 C         3.067929        -0.067832         2.376320
 C         2.331201         0.576885         1.244942
 O         2.342382         0.595658        -0.909123
 H        -0.624839        -0.188853         0.827685
 H        -0.373714         1.003027        -0.555615
 H        -0.521062        -0.727582        -0.780836
 H         2.228644        -2.089623         0.778691
 H         2.091898        -1.802480        -0.984566
 H         5.406800        -0.387769         0.184755
 H         4.971095         1.154449         0.513099
 H         2.742485        -1.060293         2.873682
 H         3.118490         0.487088         3.310677
 H         2.382387         1.697675         1.300873
