19
Iteration:  1787
 C        -0.206999         0.031726        -0.180271
 C         1.380715        -0.136504         0.140032
 C         2.412254        -1.326152         0.263467
 C         3.228052        -0.034155         0.045198
 C         4.632627         0.038127         0.490357
 O         4.421744        -0.295796         1.977113
 C         3.095219         0.064799         2.400032
 C         2.370025         0.678417         1.190048
 O         2.295121         0.535952        -0.930298
 H        -0.700145         0.148991         0.884649
 H        -0.400428         0.851117        -0.873594
 H        -0.588328        -0.884505        -0.693484
 H         2.592586        -1.903007         1.185010
 H         2.596567        -2.137561        -0.461842
 H         5.289244        -0.776130        -0.045959
 H         5.150767         0.989324         0.341784
 H         2.546224        -0.668470         2.919846
 H         3.246993         0.802883         3.203537
 H         2.276346         1.772359         1.155338
