19
Iteration:  1240
 C        -0.086302         0.085986        -0.005939
 C         1.360675        -0.148799         0.174626
 C         2.409672        -1.277796         0.157753
 C         3.173896        -0.030282         0.029143
 C         4.686577         0.015128         0.607318
 O         4.405467        -0.294596         2.014737
 C         3.018656         0.098216         2.376971
 C         2.379905         0.641864         1.046060
 O         2.294608         0.477681        -1.021499
 H        -0.530037        -0.685057         0.774721
 H        -0.456854         0.989365         0.243937
 H        -0.572042        -0.294774        -0.899264
 H         2.690358        -1.902408         1.011664
 H         2.464289        -1.922521        -0.714625
 H         5.416386        -0.729793         0.179004
 H         5.025764         1.051153         0.441674
 H         2.363618        -0.778701         2.814407
 H         3.271803         0.860386         3.134411
 H         2.231449         1.702278         1.038087
