19
Iteration:  4457charge 0 multiplicity 1
 C        -0.180616        -0.010058        -0.023917
 C         1.397916        -0.119687         0.162634
 C         2.432707        -1.287754        -0.043298
 C         3.260606         0.048394         0.094919
 C         4.590687         0.107117         0.564610
 O         4.428313        -0.404516         1.917524
 C         3.047594        -0.022354         2.421861
 C         2.282827         0.575166         1.216025
 O         2.380096         0.674715        -0.877720
 H        -0.619012         0.879337         0.317748
 H        -0.429421         0.066617        -1.070906
 H        -0.584301        -0.986682         0.387640
 H         2.363510        -2.082978         0.849023
 H         2.497076        -1.729832        -1.076530
 H         5.249047        -0.597076         0.043481
 H         4.883804         1.113553         0.527871
 H         2.623399        -1.040968         2.620381
 H         3.191913         0.706315         3.354832
 H         2.336068         1.692941         1.249091
