19
Iteration:  3480charge 0 multiplicity 1
 C        -0.148659         0.082791         0.009058
 C         1.363433        -0.144617         0.110209
 C         2.302874        -1.305000         0.114274
 C         3.216569        -0.120179         0.125573
 C         4.630178        -0.059835         0.603952
 O         4.524144        -0.248240         2.052263
 C         3.118483         0.257434         2.405900
 C         2.292940         0.621689         1.032835
 O         2.319910         0.438616        -1.063671
 H        -0.551098        -0.833843         0.452898
 H        -0.504724         0.850544         0.597407
 H        -0.458754         0.286360        -1.044010
 H         2.272553        -1.882479         1.042952
 H         2.404925        -2.011098        -0.797909
 H         5.224528        -0.869562         0.313357
 H         5.009103         0.883138         0.278386
 H         2.603334        -0.577774         3.180571
 H         3.145095         1.202005         2.983520
 H         2.467445         1.746938         0.901496
