19
Iteration:  1920charge 0 multiplicity 1
 C        -0.070028         0.081566        -0.101335
 C         1.393875        -0.122469         0.015557
 C         2.159905        -1.388476         0.046407
 C         3.130188        -0.223436         0.166412
 C         4.551429        -0.136792         0.602031
 O         4.544882         0.198818         1.944773
 C         3.201608         0.005158         2.454468
 C         2.336717         0.491883         1.252316
 O         2.395939         0.548026        -0.942782
 H        -0.662092        -0.694805         0.309439
 H        -0.376475         0.982671         0.590579
 H        -0.370112         0.130234        -1.204159
 H         1.943422        -1.970752         0.979538
 H         2.221936        -2.018488        -0.865082
 H         5.169019        -1.095460         0.200210
 H         5.051757         0.706031         0.099446
 H         2.792354        -0.904142         2.820758
 H         2.851723         0.720353         3.167406
 H         2.314299         1.551324         1.192043
