19
Iteration:   636charge 0 multiplicity 1
 C        -0.009198         0.020824        -0.023780
 C         1.496325        -0.047420         0.124421
 C         2.159541        -1.346997         0.113664
 C         3.170068        -0.103390         0.108652
 C         4.600402         0.059165         0.529060
 O         4.465063         0.007972         1.959708
 C         3.027159        -0.067904         2.406236
 C         2.342992         0.547293         1.210345
 O         2.359785         0.439001        -0.997387
 H        -0.497043        -0.441450         0.795924
 H        -0.279199         1.157476        -0.104880
 H        -0.408284        -0.438392        -0.957067
 H         2.073973        -2.067272         0.944933
 H         2.161767        -1.834404        -0.857882
 H         5.282139        -0.692154         0.156533
 H         5.107768         1.020522         0.445340
 H         2.717259        -1.048710         2.657947
 H         3.085952         0.618988         3.342029
 H         2.536249         1.672381         1.106854
