19
Iteration:  3771charge 0 multiplicity 1
 C        -0.141508         0.083984        -0.044194
 C         1.341707        -0.111613         0.165141
 C         2.407661        -1.318618         0.082553
 C         3.204757        -0.005612         0.033681
 C         4.640319         0.012079         0.559657
 O         4.458518        -0.289218         2.013981
 C         3.114156         0.036154         2.468373
 C         2.301621         0.594211         1.145864
 O         2.273628         0.551372        -1.019729
 H        -0.183482        -0.144254        -1.167344
 H        -0.797995        -0.659869         0.354284
 H        -0.356962         1.097526         0.105011
 H         2.543906        -1.965717         0.967749
 H         2.286793        -1.995462        -0.858252
 H         5.390165        -0.705440         0.283453
 H         5.118150         0.928308         0.503373
 H         2.746608        -0.912161         3.096962
 H         3.302435         0.829852         3.289299
 H         2.232201         1.678998         1.133801
