19
Iteration:  4159
 C        -0.061391         0.072276        -0.071237
 C         1.393255        -0.077861         0.078913
 C         2.420957        -1.378097         0.093028
 C         3.243181         0.039270         0.029128
 C         4.672033         0.111267         0.562839
 O         4.425892        -0.336852         1.979357
 C         2.989638        -0.047334         2.442899
 C         2.345868         0.549892         1.221080
 O         2.220837         0.623549        -0.946614
 H        -0.634598        -0.765795         0.419436
 H        -0.484562         1.063170         0.125184
 H        -0.358196        -0.138773        -1.073524
 H         2.455070        -2.002226         0.999916
 H         2.254149        -1.982381        -0.868968
 H         5.447534        -0.704325         0.245962
 H         5.188090         1.133916         0.527735
 H         2.778988        -0.987782         2.817913
 H         3.138149         0.740483         3.287386
 H         2.246432         1.658181         1.264819
