19
Iteration:  4250charge 0 multiplicity 1
 C        -0.078430         0.073597        -0.074775
 C         1.368055        -0.066430         0.048242
 C         2.343324        -1.274472        -0.071003
 C         3.231190        -0.021549         0.118290
 C         4.718295        -0.016103         0.577479
 O         4.501139        -0.064828         2.018042
 C         3.050770        -0.227164         2.448113
 C         2.342628         0.484223         1.281557
 O         2.195414         0.630794        -0.917621
 H        -0.518958         0.733856         0.674836
 H        -0.089717         0.581371        -1.075500
 H        -0.761933        -0.945641        -0.099287
 H         2.237385        -2.064447         0.783027
 H         2.318539        -1.799772        -0.982670
 H         5.319445        -0.920680         0.355725
 H         5.140904         1.058042         0.306985
 H         2.756583        -1.304404         2.508292
 H         2.870469         0.399505         3.265914
 H         2.297629         1.624792         1.276821
