19
Iteration:  3519
 C        -0.007639        -0.028436        -0.041247
 C         1.369067        -0.035798         0.179889
 C         2.338599        -1.267005         0.212010
 C         3.204066        -0.116469         0.145386
 C         4.593785        -0.058010         0.517812
 O         4.389806        -0.298527         1.937315
 C         3.014253         0.202422         2.388741
 C         2.420900         0.753519         1.075380
 O         2.319411         0.424565        -0.951704
 H        -0.602610        -0.429813         0.843306
 H        -0.463550         1.013274        -0.134859
 H        -0.207848        -0.506732        -1.082100
 H         2.505631        -2.002688         1.049644
 H         2.251975        -1.809538        -0.703628
 H         5.206474        -0.930755         0.052153
 H         5.041374         0.992631         0.251838
 H         2.511104        -0.624304         2.847866
 H         3.259964         0.937055         3.201537
 H         2.376850         1.771000         0.722600
