19
Iteration:  2976charge 0 multiplicity 1
 C        -0.143920         0.138534        -0.028320
 C         1.365876        -0.146228         0.120932
 C         2.227654        -1.393784         0.155577
 C         3.206888        -0.095911         0.120603
 C         4.677040        -0.050400         0.512502
 O         4.521506        -0.068285         1.974720
 C         3.008646         0.033713         2.408142
 C         2.331561         0.645286         1.153463
 O         2.403769         0.429582        -0.988029
 H        -0.906773        -0.583921         0.317499
 H        -0.464069         1.046286         0.629244
 H        -0.349213         0.327998        -1.091147
 H         2.172825        -2.029374         1.006944
 H         2.349748        -1.850079        -0.800396
 H         5.216880        -0.983861         0.231906
 H         5.427016         0.799939         0.209993
 H         2.810560        -0.852909         2.945204
 H         3.070768         0.886434         3.110804
 H         2.211725         1.716624         0.889091
