19
Iteration:  2364
 C        -0.088700        -0.038320         0.072820
 C         1.387116        -0.030751         0.055399
 C         2.233224        -1.275549         0.108250
 C         3.248377        -0.140880         0.068101
 C         4.688711        -0.234284         0.607507
 O         4.454662        -0.004898         2.088394
 C         3.040434         0.152501         2.372968
 C         2.454798         0.586284         1.052059
 O         2.245625         0.538507        -1.074067
 H        -0.545741        -0.778684         0.670598
 H        -0.683644         0.889290         0.317231
 H        -0.311545        -0.309238        -1.011791
 H         2.143771        -1.962077         1.007858
 H         2.278602        -1.894491        -0.828403
 H         5.276956        -1.264842         0.586103
 H         5.394264         0.535574         0.434896
 H         2.633637        -0.822824         2.845953
 H         3.002145         0.945744         3.211898
 H         2.464117         1.740622         1.036777
