19
Iteration:  4290
 C        -0.157396         0.027307        -0.068537
 C         1.434258        -0.097675         0.113627
 C         2.214196        -1.337940        -0.073455
 C         3.188791        -0.108740         0.125619
 C         4.640022        -0.005296         0.532106
 O         4.477662        -0.002528         1.974907
 C         3.019984        -0.201293         2.397962
 C         2.309085         0.435461         1.202138
 O         2.454139         0.757147        -0.799560
 H        -0.346930         1.099610         0.056182
 H        -0.453944        -0.131635        -1.066860
 H        -0.708059        -0.603444         0.516688
 H         2.385665        -2.022471         0.756799
 H         2.465317        -1.688531        -1.093191
 H         5.293796        -0.848705         0.166024
 H         4.954148         0.938915         0.203627
 H         2.901824        -1.269714         2.526839
 H         3.062497         0.279819         3.449688
 H         2.177155         1.477413         1.482093
