19
Iteration:  3013
 C        -0.038000         0.148556         0.054676
 C         1.424730        -0.047118         0.127719
 C         2.195654        -1.396044         0.109440
 C         3.254194        -0.221376         0.079309
 C         4.701496        -0.037969         0.551650
 O         4.460995         0.044698         2.012140
 C         2.964181        -0.023551         2.394588
 C         2.416238         0.589264         1.059061
 O         2.281945         0.451551        -0.990600
 H        -0.484151        -0.762937         0.487348
 H        -0.266370         1.083396         0.410305
 H        -0.339995         0.162870        -1.038922
 H         2.107827        -2.071027         1.003315
 H         2.027826        -2.028791        -0.791403
 H         5.334774        -0.994457         0.307052
 H         5.055616         0.923527         0.149200
 H         2.481553        -0.883366         2.791198
 H         2.959265         0.710487         3.197652
 H         2.640978         1.618634         1.172112
