19
Iteration:  4662
 C        -0.047429         0.025829        -0.035839
 C         1.438588        -0.068183         0.116402
 C         2.281212        -1.237496        -0.085286
 C         3.166612        -0.010328        -0.011636
 C         4.587894         0.051651         0.571753
 O         4.446063        -0.162242         2.024947
 C         3.067083        -0.250382         2.474546
 C         2.373854         0.410093         1.229679
 O         2.333903         0.744755        -0.913437
 H        -0.334501         0.729335        -0.782440
 H        -0.383058        -0.989571        -0.310526
 H        -0.614981         0.121226         0.951857
 H         2.247926        -1.852043         0.858784
 H         2.248395        -1.713197        -1.040346
 H         5.330864        -0.538795         0.051867
 H         4.850046         1.143331         0.433791
 H         2.866680        -1.267693         2.730428
 H         2.875627         0.314064         3.396865
 H         2.446467         1.521731         1.361515
