19
Iteration:  1117
 C        -0.099492         0.077671        -0.013463
 C         1.381853        -0.133039         0.195996
 C         2.170118        -1.433415        -0.056272
 C         3.189968        -0.150283         0.067079
 C         4.633800        -0.129171         0.572535
 O         4.480540         0.147822         1.974373
 C         3.059612         0.007676         2.436924
 C         2.321808         0.531215         1.165231
 O         2.469405         0.582356        -0.923813
 H        -0.720131        -0.583448         0.676733
 H        -0.486017         1.065508         0.153345
 H        -0.367605        -0.224861        -1.033085
 H         2.205017        -2.093504         0.799503
 H         2.162868        -1.870314        -1.066717
 H         5.064327        -1.153996         0.628643
 H         5.332766         0.585410         0.088468
 H         2.816389        -1.096341         2.753873
 H         2.869843         0.690497         3.309745
 H         2.462003         1.599226         1.016956
