19
Iteration:  3032
 C        -0.142695         0.153644         0.003904
 C         1.397966        -0.154861         0.139298
 C         2.173891        -1.406079         0.054936
 C         3.187254        -0.175266         0.052587
 C         4.662629        -0.056210         0.574071
 O         4.499871         0.009186         2.014139
 C         3.106777         0.081690         2.405352
 C         2.353673         0.559314         1.126162
 O         2.394363         0.478742        -0.949828
 H        -0.722674        -0.457391         0.769201
 H        -0.438165         1.255425         0.051395
 H        -0.623662        -0.073615        -1.044101
 H         2.160365        -2.084505         0.889645
 H         2.229506        -1.945358        -0.843378
 H         5.252678        -1.038554         0.428260
 H         5.243199         0.908299         0.243102
 H         2.910161        -0.987886         2.593526
 H         2.940414         0.742387         3.253730
 H         2.296866         1.685202         0.907474
