19
Iteration:  2805charge 0 multiplicity 1
 C        -0.083407         0.054413        -0.123118
 C         1.380674        -0.119948         0.168824
 C         2.289108        -1.373903         0.137464
 C         3.225836        -0.093136         0.117945
 C         4.606694        -0.063050         0.499996
 O         4.475583        -0.131700         1.941887
 C         3.052821         0.122912         2.384039
 C         2.358017         0.685155         1.211443
 O         2.367596         0.483772        -0.902187
 H        -0.807265        -0.605711         0.470543
 H        -0.406930         1.039123         0.150430
 H        -0.492496        -0.217404        -1.165197
 H         2.177933        -2.163449         1.017127
 H         2.248775        -1.888479        -0.858181
 H         5.149409        -0.984622         0.051444
 H         4.975933         0.868457         0.141847
 H         2.547150        -0.799397         2.723357
 H         3.206555         0.625689         3.350260
 H         2.384662         1.781395         1.277871
