19
Iteration:   899charge 0 multiplicity 1
 C        -0.159334        -0.010530         0.018540
 C         1.388335        -0.088347         0.151761
 C         2.343693        -1.357914         0.020001
 C         3.217430        -0.057747         0.070684
 C         4.607752        -0.024466         0.554524
 O         4.451534        -0.120052         2.014540
 C         3.015905         0.021322         2.412948
 C         2.414082         0.563310         1.164718
 O         2.371955         0.585626        -0.988508
 H        -0.768721        -0.686365         0.646772
 H        -0.634962         1.042475         0.134996
 H        -0.410599        -0.206176        -0.994629
 H         2.397291        -1.963057         0.932205
 H         2.251212        -2.038858        -0.872286
 H         5.321457        -0.824790         0.158672
 H         5.181617         0.864624         0.256092
 H         2.621193        -0.829100         2.844834
 H         3.116687         0.824243         3.192036
 H         2.243507         1.658715         1.118466
