19
Iteration:  1582charge 0 multiplicity 1
 C        -0.147281         0.087823        -0.070641
 C         1.314019        -0.060806         0.065527
 C         2.262566        -1.361907         0.080679
 C         3.200633        -0.164849         0.041110
 C         4.593091        -0.131546         0.675099
 O         4.532429         0.189535         2.071135
 C         3.140382        -0.076295         2.347995
 C         2.423010         0.503511         1.199734
 O         2.290821         0.511217        -1.016617
 H        -0.539710        -0.274815         0.862056
 H        -0.174402         1.224768        -0.214954
 H        -0.438323        -0.403714        -1.031336
 H         2.322031        -2.134209         0.896124
 H         2.136725        -1.901714        -0.896505
 H         4.988968        -1.081486         0.465488
 H         5.168319         0.751508         0.299170
 H         2.862876        -1.109326         2.534316
 H         2.971032         0.403622         3.311251
 H         2.518802         1.609411         1.378941
