19
Iteration:  4849charge 0 multiplicity 1
 C        -0.222505         0.115060        -0.063437
 C         1.320680        -0.090617         0.124199
 C         2.266184        -1.332220        -0.106215
 C         3.278527        -0.097484         0.031788
 C         4.679441         0.087609         0.572734
 O         4.470838         0.024686         2.051330
 C         3.120130        -0.268590         2.381713
 C         2.380829         0.389777         1.243777
 O         2.331992         0.653781        -0.849498
 H        -0.370426         0.957889         0.595866
 H        -0.356766         0.403887        -1.102860
 H        -0.844918        -0.778547         0.134905
 H         2.297803        -2.136556         0.765403
 H         2.215253        -1.833784        -1.091988
 H         5.335444        -0.685217         0.216525
 H         5.067402         1.007358         0.312360
 H         2.934380        -1.379752         2.659257
 H         3.041728         0.247857         3.397730
 H         2.381229         1.544057         1.225311
