19
Iteration:   240
 C        -0.128225        -0.021469        -0.078273
 C         1.408086        -0.135704         0.069250
 C         2.371567        -1.398244        -0.006105
 C         3.184642        -0.102101         0.121429
 C         4.610658        -0.146256         0.511180
 O         4.460835        -0.114809         1.997088
 C         3.074694         0.200017         2.481562
 C         2.345628         0.553659         1.189856
 O         2.295742         0.649737        -0.876391
 H        -0.619546        -0.270067         0.971640
 H        -0.325897         0.954430        -0.443797
 H        -0.456431        -0.714441        -0.834935
 H         2.541799        -2.067149         0.748171
 H         2.368379        -1.931244        -0.965939
 H         5.077817        -1.042336         0.223133
 H         5.134301         0.802368         0.112430
 H         2.682771        -0.561472         3.124667
 H         3.133032         1.115031         3.071916
 H         2.377592         1.596412         1.149810
