19
Iteration:  2846
 C        -0.161050         0.045491         0.081310
 C         1.426394        -0.111923        -0.003851
 C         2.292830        -1.349750         0.071991
 C         3.208541        -0.144417         0.002853
 C         4.653394         0.045030         0.624743
 O         4.465059        -0.247659         2.073241
 C         3.029194         0.141171         2.371748
 C         2.445359         0.603696         1.106987
 O         2.291644         0.522818        -0.988685
 H        -0.393817         0.086605         1.143014
 H        -0.242577         1.053777        -0.415492
 H        -0.878125        -0.563409        -0.464565
 H         2.312757        -1.923130         0.982956
 H         2.222457        -1.983543        -0.799052
 H         5.482467        -0.653421         0.436730
 H         5.087995         1.036139         0.567909
 H         2.534625        -0.904516         2.740941
 H         2.994903         0.893694         3.206525
 H         2.462111         1.633412         0.726428
