19
Iteration:  4069charge 0 multiplicity 1
 C        -0.103787         0.106414        -0.094407
 C         1.404573        -0.115016         0.193241
 C         2.350170        -1.295508         0.054334
 C         3.202843        -0.048366         0.040243
 C         4.621732         0.002198         0.538191
 O         4.453170        -0.164070         1.971158
 C         3.042731        -0.028766         2.416784
 C         2.341174         0.574437         1.224107
 O         2.306986         0.497380        -0.892465
 H        -0.352499        -0.645402        -0.810145
 H        -0.699454         0.023251         0.834837
 H        -0.273088         1.060120        -0.592610
 H         2.614987        -2.069005         0.842305
 H         2.243552        -1.576763        -1.009544
 H         5.330857        -0.816483         0.208692
 H         5.160422         0.956660         0.270514
 H         2.708819        -1.024041         2.590868
 H         2.840444         0.583180         3.375554
 H         2.373716         1.665054         1.117232
