19
Iteration:  2506charge 0 multiplicity 1
 C        -0.147582         0.018904         0.005170
 C         1.396820        -0.040720         0.112169
 C         2.364427        -1.363746         0.078064
 C         3.197650        -0.096494         0.083022
 C         4.644803        -0.173235         0.519472
 O         4.414478        -0.080428         2.022133
 C         3.043765         0.129384         2.390042
 C         2.437374         0.703217         1.167052
 O         2.333846         0.476810        -0.955643
 H        -0.581416        -0.727857         0.623956
 H        -0.562960         1.012243         0.243625
 H        -0.263584        -0.269556        -1.051721
 H         2.286748        -2.136603         0.922500
 H         2.441994        -1.782857        -0.940258
 H         4.766121        -1.247245         0.138385
 H         5.340513         0.595308         0.231450
 H         2.558380        -0.761829         2.799924
 H         2.873139         0.855648         3.256679
 H         2.349328         1.833671         1.005411
