19
Iteration:  4402charge 0 multiplicity 1
 C        -0.177370        -0.005962        -0.131340
 C         1.354160        -0.098388         0.179765
 C         2.328403        -1.298426        -0.049797
 C         3.304639        -0.006579         0.122513
 C         4.707100         0.150276         0.593987
 O         4.414377        -0.329527         1.951447
 C         3.013524        -0.124222         2.381881
 C         2.404594         0.557412         1.241199
 O         2.282426         0.698117        -0.849724
 H        -0.280401         0.967284        -0.532199
 H        -0.647060        -0.751284        -0.750834
 H        -0.687331        -0.109215         0.869751
 H         2.401712        -2.339837         0.585333
 H         2.509726        -1.624343        -1.067097
 H         5.487301        -0.447729         0.099842
 H         4.915244         1.171504         0.372288
 H         2.737312        -1.118895         2.748647
 H         3.079405         0.457835         3.334245
 H         2.536464         1.644858         1.210697
