19
Iteration:  4483
 C        -0.029242        -0.035545        -0.058794
 C         1.449916        -0.034545         0.092965
 C         2.282901        -1.247206        -0.027137
 C         3.274382        -0.009969         0.018148
 C         4.668820         0.127632         0.609710
 O         4.425267        -0.346842         1.992936
 C         3.088513        -0.085288         2.459957
 C         2.355765         0.514734         1.199560
 O         2.179439         0.656394        -0.912238
 H        -0.538901         0.698258         0.649106
 H        -0.323562         0.314875        -1.081782
 H        -0.371804        -1.027494         0.155244
 H         2.308656        -1.851075         0.920438
 H         1.979946        -1.890936        -0.975741
 H         5.475215        -0.498053         0.248510
 H         4.894581         1.254918         0.605958
 H         2.655977        -1.056257         2.637947
 H         3.115311         0.554151         3.277926
 H         2.459838         1.625174         1.288723
