19
Iteration:  1687charge 0 multiplicity 1
 C        -0.035148         0.040975        -0.086944
 C         1.407224        -0.090390         0.189896
 C         2.367827        -1.372798         0.148707
 C         3.149952        -0.041682         0.094062
 C         4.559432        -0.000223         0.439860
 O         4.395529        -0.091336         2.018223
 C         3.041198         0.022459         2.386041
 C         2.374272         0.655939         1.196263
 O         2.386123         0.444986        -0.985185
 H        -0.653173        -0.679624         0.677506
 H        -0.184856         1.043205         0.333040
 H        -0.317821        -0.163990        -1.141981
 H         2.303916        -2.101960         0.967812
 H         2.184876        -1.893976        -0.802675
 H         5.153958        -0.980616         0.160985
 H         5.144654         0.797827         0.064371
 H         2.538093        -0.910521         2.698920
 H         2.961724         0.732775         3.276662
 H         2.411759         1.765551         1.372657
