19
Iteration:  1367charge 0 multiplicity 1
 C        -0.098523         0.214388        -0.074028
 C         1.333656        -0.130149         0.135464
 C         2.153347        -1.383814         0.032541
 C         3.150796        -0.131884         0.132544
 C         4.628694         0.020854         0.619547
 O         4.493805         0.182644         1.986106
 C         3.128655        -0.135750         2.420476
 C         2.281019         0.436589         1.252774
 O         2.475199         0.412261        -1.070164
 H        -0.470222         0.011534         0.903551
 H        -0.430748         1.271873        -0.395502
 H        -0.580980        -0.475225        -0.800495
 H         2.293072        -1.888516         0.970629
 H         2.300371        -1.919110        -0.898649
 H         5.307146        -0.793588         0.360952
 H         4.940500         0.876856         0.034670
 H         3.203064        -1.303217         2.667009
 H         3.053144         0.356979         3.397486
 H         2.375113         1.502895         1.421895
