19
Iteration:  4320charge 0 multiplicity 1
 C        -0.065042         0.093325        -0.053678
 C         1.396180        -0.110805         0.074631
 C         2.256408        -1.330208        -0.183030
 C         3.181314        -0.046487         0.097367
 C         4.607701         0.037801         0.597307
 O         4.491926        -0.053540         2.074519
 C         3.107087        -0.221588         2.508897
 C         2.387927         0.445612         1.253129
 O         2.243375         0.675316        -0.930183
 H        -0.148110         1.165155        -0.515374
 H        -0.329471        -0.626985        -0.925096
 H        -0.773491         0.054031         0.843441
 H         2.383161        -2.080285         0.553445
 H         2.541059        -1.710841        -1.240184
 H         5.117395        -0.837159         0.162076
 H         5.019034         1.006383         0.342093
 H         2.944840        -1.339492         2.498176
 H         3.123926         0.322541         3.519465
 H         2.319285         1.529725         1.475584
