19
Iteration:  1784charge 0 multiplicity 1
 C        -0.207237         0.021547        -0.162799
 C         1.395288        -0.155471         0.140041
 C         2.402803        -1.328800         0.266877
 C         3.212274        -0.021666         0.055266
 C         4.599773         0.032551         0.485894
 O         4.426716        -0.302442         1.953976
 C         3.073975         0.069667         2.403666
 C         2.391910         0.674165         1.199123
 O         2.322440         0.549805        -0.946310
 H        -0.715953         0.204279         0.863289
 H        -0.355636         0.837082        -0.821921
 H        -0.576864        -0.871582        -0.631769
 H         2.553131        -1.909455         1.159457
 H         2.657634        -2.104113        -0.463994
 H         5.311834        -0.755372        -0.019163
 H         5.230486         0.993321         0.481075
 H         2.514853        -0.620365         2.974516
 H         3.282647         0.834251         3.205860
 H         2.108806         1.761707         1.022199
