19
Iteration:  4590
 C        -0.048878         0.087493        -0.073333
 C         1.394090        -0.080049         0.070984
 C         2.278642        -1.311185        -0.106352
 C         3.207738        -0.067403         0.096781
 C         4.596553         0.039525         0.524162
 O         4.481605         0.034782         1.975937
 C         3.072204        -0.258146         2.375789
 C         2.260739         0.353812         1.266476
 O         2.368986         0.701291        -0.760447
 H        -0.144411         1.113089        -0.455010
 H        -0.624518        -0.643539        -0.670773
 H        -0.516010         0.032436         0.916235
 H         2.172268        -2.032742         0.716258
 H         2.384579        -1.788844        -1.132815
 H         5.249089        -0.843120         0.311799
 H         5.056401         0.901213         0.068942
 H         2.860503        -1.385176         2.551949
 H         3.019554         0.107858         3.464616
 H         2.226707         1.442152         1.482613
