19
Iteration:  1837charge 0 multiplicity 1
 C        -0.143633         0.104857        -0.044833
 C         1.380435        -0.108640         0.125219
 C         2.207720        -1.361232         0.080671
 C         3.184935        -0.239954         0.111989
 C         4.589264        -0.003286         0.532603
 O         4.487357         0.004263         1.949156
 C         3.089636         0.096973         2.448175
 C         2.363047         0.468760         1.172614
 O         2.453185         0.509053        -0.933825
 H        -0.577930        -0.564730         0.714721
 H        -0.393820         1.161637        -0.001579
 H        -0.424032        -0.119621        -1.061847
 H         2.274020        -2.063490         0.922353
 H         2.182534        -1.997809        -0.832789
 H         5.239256        -0.818129         0.180086
 H         4.978913         1.019296         0.260958
 H         2.637327        -0.953241         2.845411
 H         3.008086         0.882129         3.266664
 H         2.400684         1.588276         0.896683
