19
Iteration:  2800
 C        -0.106830         0.059389        -0.167581
 C         1.403019        -0.140480         0.177800
 C         2.280139        -1.402316         0.168385
 C         3.170941        -0.097361         0.164690
 C         4.610155        -0.097081         0.496661
 O         4.520284        -0.126304         1.966889
 C         3.075699         0.092384         2.393284
 C         2.382583         0.711816         1.166721
 O         2.307733         0.529231        -0.914809
 H        -0.706440        -0.658476         0.341248
 H        -0.543690         1.089935         0.113666
 H        -0.411544        -0.003630        -1.180185
 H         2.261411        -2.006749         1.000431
 H         2.345936        -2.022915        -0.719510
 H         5.261773        -0.853709         0.160502
 H         5.059059         0.897408         0.166115
 H         2.639273        -1.004997         2.661605
 H         3.234846         0.626449         3.346439
 H         2.251026         1.810922         1.032531
