19
Iteration:  1123
 C        -0.109591         0.039089        -0.045889
 C         1.357630        -0.124584         0.235784
 C         2.209874        -1.364774        -0.008575
 C         3.206740        -0.138017         0.040238
 C         4.614013        -0.139798         0.549302
 O         4.463075         0.130216         1.953515
 C         3.052830        -0.018609         2.408935
 C         2.302480         0.558606         1.210886
 O         2.496304         0.576162        -0.928183
 H        -0.647767        -0.554724         0.702619
 H        -0.375938         1.153486         0.073690
 H        -0.374275        -0.341279        -1.033715
 H         2.135741        -2.294313         0.666666
 H         2.101953        -2.005218        -0.909457
 H         5.076775        -1.134362         0.537755
 H         5.403307         0.539268         0.211296
 H         2.726465        -0.965184         2.736076
 H         3.043134         0.718722         3.192847
 H         2.382617         1.687916         1.280220
