19
Iteration:  2257charge 0 multiplicity 1
 C        -0.077093         0.096762        -0.121420
 C         1.355624        -0.182096         0.258886
 C         2.311920        -1.348343         0.148173
 C         3.175108        -0.112579         0.119838
 C         4.561095        -0.072515         0.481471
 O         4.463234        -0.110617         1.985724
 C         3.102750         0.135398         2.446203
 C         2.307495         0.672025         1.195487
 O         2.383193         0.448512        -1.059153
 H        -0.581325        -0.089049         0.808682
 H        -0.146584         1.098542        -0.701911
 H        -0.364062        -0.723693        -0.854711
 H         2.336575        -1.997935         1.054486
 H         2.361376        -1.917056        -0.787560
 H         5.187650        -0.880682         0.309285
 H         5.034020         0.983634         0.322426
 H         2.861993        -0.851264         2.847159
 H         3.203273         0.800753         3.242609
 H         2.145586         1.740876         1.141294
