19
Iteration:  4037charge 0 multiplicity 1
 C        -0.003303         0.152738        -0.028963
 C         1.410158        -0.101994        -0.011730
 C         2.270785        -1.353547         0.083016
 C         3.197545        -0.097356         0.025340
 C         4.590394         0.027317         0.536699
 O         4.533363        -0.078875         2.008155
 C         3.035938        -0.032391         2.478051
 C         2.261285         0.480151         1.224209
 O         2.336147         0.519572        -0.946588
 H        -0.504707         0.072878        -0.961215
 H        -0.572707        -0.603936         0.608293
 H        -0.355089         1.101570         0.322417
 H         2.422573        -2.003377         1.043734
 H         2.234014        -2.056879        -0.786579
 H         5.196100        -0.864935         0.167669
 H         4.859716         1.057580         0.229647
 H         2.822935        -1.000412         2.651679
 H         2.933094         0.604462         3.414416
 H         2.327490         1.580615         1.194439
