19
Iteration:  3729charge 0 multiplicity 1
 C        -0.074404         0.067215        -0.118358
 C         1.447148        -0.058154         0.235817
 C         2.176875        -1.388756         0.130257
 C         3.220664        -0.183148         0.087332
 C         4.647387         0.101390         0.515339
 O         4.455703        -0.148108         1.921607
 C         3.048258        -0.007379         2.384590
 C         2.333801         0.575659         1.225331
 O         2.384761         0.530089        -0.931205
 H        -0.039515         0.617078        -1.027406
 H        -0.619853        -0.831073        -0.192133
 H        -0.472463         0.737267         0.710337
 H         2.148275        -1.982027         1.012191
 H         2.196483        -1.994362        -0.799430
 H         5.376644        -0.592093         0.019476
 H         4.834723         1.154717         0.261518
 H         2.638379        -0.956074         2.832412
 H         2.972402         0.625255         3.273433
 H         2.349404         1.660656         1.092370
