19
Iteration:   802
 C        -0.042483         0.214194        -0.066847
 C         1.437118        -0.118845         0.035046
 C         2.253202        -1.406351        -0.008205
 C         3.200607        -0.216127         0.117106
 C         4.591257        -0.028703         0.500188
 O         4.448152         0.208696         2.047354
 C         3.184156        -0.099208         2.445254
 C         2.291458         0.388428         1.265991
 O         2.286794         0.513577        -0.927850
 H        -0.621171        -0.202201         0.827132
 H        -0.148236         1.242509        -0.185894
 H        -0.450166        -0.231512        -0.941673
 H         2.245343        -2.148529         0.805386
 H         2.275820        -1.975771        -0.999729
 H         5.208586        -0.838725         0.285241
 H         5.076685         0.781324        -0.033770
 H         3.033542        -1.173815         2.809483
 H         2.868345         0.561688         3.339980
 H         2.193319         1.472771         1.274205
