19
Iteration:  4343
 C        -0.144903         0.132444        -0.108973
 C         1.430614        -0.127505         0.194752
 C         2.345639        -1.325229        -0.123090
 C         3.178842        -0.013328         0.087288
 C         4.700554         0.080672         0.573213
 O         4.473412        -0.116943         2.014243
 C         3.044434        -0.204244         2.362682
 C         2.285464         0.422753         1.240764
 O         2.297676         0.643296        -0.811035
 H        -0.284391         1.129485        -0.733153
 H        -0.642523        -0.718010        -0.695179
 H        -0.684115         0.293240         0.842805
 H         2.595677        -1.984235         0.673113
 H         2.421868        -1.728121        -1.203002
 H         5.332589        -0.798973         0.294690
 H         5.104919         1.020623         0.341661
 H         2.823824        -1.304018         2.406315
 H         2.997254         0.398866         3.370193
 H         2.333023         1.522156         1.291823
