19
Iteration:   698charge 0 multiplicity 1
 C        -0.018554        -0.084897        -0.094170
 C         1.416171        -0.078648         0.162363
 C         2.406025        -1.351234         0.089399
 C         3.194382         0.024758         0.064709
 C         4.669683         0.032740         0.482327
 O         4.293142        -0.444983         1.950671
 C         3.165735         0.283425         2.519159
 C         2.308555         0.661248         1.242164
 O         2.239465         0.508704        -0.974007
 H        -0.586919        -0.552405         0.641080
 H        -0.399469         0.980244        -0.019036
 H        -0.188038        -0.524873        -1.121875
 H         2.527366        -2.079931         0.933983
 H         2.330010        -1.784752        -0.917095
 H         5.309537        -0.720439        -0.108524
 H         4.948949         1.068275         0.593788
 H         2.555441        -0.349422         3.167584
 H         3.498844         1.144803         3.063684
 H         2.196970         1.774873         1.100011
