19
Iteration:  1448
 C        -0.106864        -0.051755        -0.059012
 C         1.414037        -0.061248         0.079632
 C         2.296569        -1.333782         0.131023
 C         3.214902        -0.079957         0.131201
 C         4.600480        -0.065075         0.588257
 O         4.481782        -0.261464         1.943148
 C         3.036241         0.216348         2.406429
 C         2.302855         0.704657         1.196637
 O         2.368283         0.526526        -0.962271
 H        -0.697532        -0.958401         0.485668
 H        -0.572868         0.854011         0.294971
 H        -0.396902        -0.286720        -1.076975
 H         2.313596        -2.177029         0.876436
 H         2.379189        -1.854717        -0.860477
 H         5.161188        -0.903518         0.049515
 H         5.122690         0.866450         0.223683
 H         2.761489        -0.716121         2.940096
 H         3.340140         1.013655         3.138757
 H         2.315686         1.808001         1.097132
