19
Iteration:  3916
 C        -0.057203         0.055190        -0.088497
 C         1.413324        -0.010269         0.000345
 C         2.210822        -1.341969         0.018507
 C         3.171262        -0.209041         0.106365
 C         4.606118         0.006773         0.498766
 O         4.468358        -0.067228         1.995151
 C         3.104115         0.027720         2.485905
 C         2.414499         0.489027         1.268877
 O         2.329518         0.541707        -0.898639
 H        -0.458253        -0.259322        -1.012033
 H        -0.623402        -0.548508         0.641036
 H        -0.414682         1.153880         0.101626
 H         2.091576        -2.167502         0.804913
 H         2.300081        -1.776531        -0.949069
 H         5.440985        -0.729259         0.191501
 H         4.826164         1.069648         0.254270
 H         2.642793        -1.040449         2.844651
 H         2.980760         0.718315         3.419664
 H         2.521259         1.616107         1.228087
