19
Iteration:   137charge 0 multiplicity 1
 C        -0.118729        -0.020911        -0.093531
 C         1.386101        -0.103595         0.071855
 C         2.272323        -1.465113        -0.073165
 C         3.219341        -0.148265         0.114467
 C         4.619419        -0.102041         0.620790
 O         4.542668        -0.108850         2.097646
 C         3.116731         0.207765         2.486021
 C         2.414067         0.582247         1.103236
 O         2.196312         0.640718        -0.922347
 H        -0.546116        -0.695723         0.757716
 H        -0.426895         1.079415         0.037803
 H        -0.391034        -0.556037        -1.058380
 H         2.292052        -2.266937         0.763000
 H         2.201978        -1.764319        -1.132386
 H         5.281987        -0.960794         0.196777
 H         5.040570         0.900309         0.327972
 H         2.709015        -0.675585         3.064060
 H         3.122409         1.149200         3.041818
 H         2.406303         1.718364         0.997721
