19
Iteration:  1967charge 0 multiplicity 1
 C        -0.059258         0.085261        -0.225754
 C         1.391049        -0.122874         0.181307
 C         2.296410        -1.415237         0.209233
 C         3.145140        -0.080894         0.086725
 C         4.633167         0.010672         0.495695
 O         4.510705        -0.143261         2.011497
 C         3.172002         0.064569         2.419709
 C         2.342664         0.563247         1.153797
 O         2.194188         0.539344        -0.909503
 H        -0.703008        -0.114377         0.686869
 H        -0.097067         1.153405        -0.495958
 H        -0.169321        -0.697775        -0.973132
 H         2.321229        -2.025220         1.156569
 H         2.233174        -1.950220        -0.766032
 H         5.462046        -0.717793         0.366878
 H         4.974916         0.995511         0.052933
 H         2.722254        -0.834927         2.713342
 H         2.921357         0.734584         3.260454
 H         2.423698         1.697157         1.072932
