19
Iteration:  4469
 C        -0.131816        -0.020998        -0.050864
 C         1.395434        -0.046326         0.126258
 C         2.371959        -1.331820         0.006540
 C         3.164460        -0.070421         0.108659
 C         4.640603         0.137616         0.611410
 O         4.453084        -0.379744         1.934511
 C         3.012458        -0.076799         2.363638
 C         2.439091         0.591149         1.187564
 O         2.282906         0.735027        -0.884716
 H        -0.568472         0.668312         0.600652
 H        -0.335627         0.078031        -1.115802
 H        -0.607825        -1.002139         0.260158
 H         2.535818        -2.180562         0.834949
 H         2.546352        -1.781718        -1.050850
 H         5.441921        -0.417398         0.145283
 H         4.965932         1.156893         0.616847
 H         2.517116        -0.949593         2.858031
 H         3.058586         0.682181         3.238594
 H         2.387248         1.708620         1.128376
