19
Iteration:  1133charge 0 multiplicity 1
 C        -0.088018         0.002382        -0.092650
 C         1.356479        -0.104747         0.226051
 C         2.273763        -1.296045         0.096672
 C         3.176937        -0.099153         0.075229
 C         4.619407        -0.201541         0.528972
 O         4.426833         0.075240         1.957620
 C         3.066983         0.004136         2.374430
 C         2.317197         0.547593         1.283248
 O         2.482942         0.570423        -0.992238
 H        -0.621341        -0.465737         0.842922
 H        -0.378176         1.114025        -0.174424
 H        -0.371933        -0.520287        -1.038733
 H         2.258025        -1.982384         1.005882
 H         2.124344        -1.531174        -0.974667
 H         5.000949        -1.146149         0.133801
 H         5.175691         0.655556         0.118449
 H         2.787733        -1.049954         2.691420
 H         3.106956         0.566419         3.308831
 H         2.119334         1.642644         1.289378
