19
Iteration:  3658charge 0 multiplicity 1
 C        -0.089345         0.096149        -0.047572
 C         1.388968        -0.068168         0.190887
 C         2.256648        -1.379353         0.013975
 C         3.167965        -0.190433         0.005805
 C         4.593535        -0.127466         0.537264
 O         4.449404         0.147485         2.015858
 C         3.095461         0.007363         2.400103
 C         2.402296         0.498643         1.273417
 O         2.389365         0.557510        -0.987641
 H        -0.391864         1.075809        -0.385640
 H        -0.310808        -0.720362        -0.884918
 H        -0.559540        -0.155803         0.918046
 H         2.196046        -2.171072         0.881093
 H         1.944192        -1.814526        -0.924110
 H         4.897107        -1.140701         0.547870
 H         5.226646         0.490314        -0.068670
 H         2.777446        -1.057735         2.789010
 H         2.855407         0.421069         3.412992
 H         2.588494         1.603505         1.326731
