19
Iteration:  3385
 C        -0.050871         0.082983        -0.213102
 C         1.388029        -0.086563         0.213124
 C         2.200384        -1.418462         0.172318
 C         3.092757        -0.202123         0.047252
 C         4.603572        -0.091648         0.562059
 O         4.558310         0.030871         1.976548
 C         3.145336         0.097752         2.441215
 C         2.314088         0.571812         1.177405
 O         2.340967         0.512477        -0.943299
 H        -0.551022        -0.665279         0.404013
 H        -0.459147         1.090341         0.196258
 H        -0.227282         0.062127        -1.269833
 H         2.091735        -1.983304         1.079902
 H         1.990609        -2.040589        -0.724558
 H         5.157923        -0.998761         0.444192
 H         5.051952         0.809952         0.041326
 H         3.009397        -0.840637         2.773033
 H         3.162228         0.682965         3.360448
 H         2.492777         1.585189         0.913263
