19
Iteration:  2192charge 0 multiplicity 1
 C        -0.102012         0.084042         0.071607
 C         1.394192        -0.091192         0.140102
 C         2.211607        -1.366007        -0.023905
 C         3.202048        -0.175323         0.006132
 C         4.663307        -0.193140         0.635878
 O         4.469423         0.231344         2.088698
 C         3.062292         0.011443         2.411339
 C         2.415191         0.530537         1.107986
 O         2.341400         0.455972        -1.026427
 H        -0.400977        -0.046718         1.107220
 H        -0.557965         1.161249        -0.323674
 H        -0.586805        -0.606339        -0.749655
 H         2.114675        -2.106363         0.778133
 H         2.275229        -1.709549        -1.065213
 H         5.146657        -1.236411         0.642023
 H         5.413367         0.589886         0.111733
 H         2.763102        -1.102096         2.572554
 H         2.785812         0.708412         3.228911
 H         2.343061         1.592514         1.064659
