19
Iteration:  1233
 C        -0.155110         0.090093        -0.000126
 C         1.371913        -0.127632         0.105224
 C         2.445224        -1.348325         0.160188
 C         3.217968         0.006895         0.072903
 C         4.658561         0.039356         0.597592
 O         4.416727        -0.326031         1.974339
 C         2.997855         0.149662         2.354801
 C         2.350139         0.559498         1.114927
 O         2.316029         0.474773        -1.017906
 H        -0.436662        -0.491184         0.884844
 H        -0.412320         1.285792         0.259698
 H        -0.567040        -0.341468        -0.934927
 H         2.651163        -1.907661         1.131330
 H         2.483900        -1.958523        -0.763978
 H         5.331850        -0.679486         0.173093
 H         5.057375         1.093561         0.497300
 H         2.549995        -0.701464         2.992277
 H         3.173814         1.009192         3.056773
 H         2.227518         1.702292         1.078539
