19
Iteration:  3007charge 0 multiplicity 1
 C        -0.002848         0.146643         0.059066
 C         1.478157        -0.026271         0.112612
 C         2.216634        -1.373562         0.136446
 C         3.215971        -0.259512         0.062231
 C         4.638643        -0.050488         0.544224
 O         4.450229         0.029685         2.029015
 C         2.988181        -0.031573         2.404389
 C         2.408082         0.603144         1.094451
 O         2.266860         0.441879        -1.032509
 H        -0.515336        -0.724156         0.458761
 H        -0.549205         1.124632         0.482944
 H        -0.272006         0.241947        -0.967636
 H         2.172459        -2.005202         1.014969
 H         2.272642        -1.936663        -0.820339
 H         5.280195        -0.842209         0.389687
 H         5.069739         0.894930         0.174669
 H         2.689682        -1.104743         2.770187
 H         2.932242         0.807752         3.130431
 H         2.557355         1.734193         1.010945
