19
Iteration:  3088
 C        -0.146381         0.108016        -0.227057
 C         1.366228        -0.117727         0.258956
 C         2.207987        -1.348793         0.181253
 C         3.169905        -0.163460         0.086140
 C         4.614542        -0.071935         0.570805
 O         4.579342        -0.075873         1.980976
 C         3.126115         0.048249         2.354812
 C         2.388844         0.564534         1.201565
 O         2.300245         0.562644        -0.929388
 H        -0.898758         0.214536         0.655666
 H        -0.077522         0.937555        -0.886245
 H        -0.505634        -0.942861        -0.720622
 H         2.482523        -1.924466         1.038417
 H         2.112529        -1.818708        -0.767552
 H         5.319208        -0.886112         0.109693
 H         4.969198         0.979713         0.186645
 H         2.814243        -0.951734         2.614453
 H         2.816719         0.555213         3.232751
 H         2.594742         1.660790         1.151509
