19
Iteration:  3238charge 0 multiplicity 1
 C        -0.057325         0.062827        -0.175141
 C         1.430599        -0.116047         0.165123
 C         2.289456        -1.348336         0.156383
 C         3.118375        -0.101405         0.122509
 C         4.557411        -0.054290         0.490630
 O         4.517391        -0.178328         1.969379
 C         3.083914         0.156884         2.410455
 C         2.406658         0.669113         1.174188
 O         2.259958         0.444568        -0.877788
 H        -0.657794        -0.670088         0.372119
 H        -0.455962         0.996513         0.018676
 H         0.016481        -0.054715        -1.261919
 H         2.289963        -1.915981         1.189512
 H         2.221421        -1.920208        -0.772895
 H         5.214515        -0.822557        -0.051343
 H         5.058223         0.966203         0.298420
 H         2.690517        -0.877990         2.812642
 H         3.184049         0.839359         3.331274
 H         2.475052         1.806588         1.024249
