19
Iteration:  2509
 C        -0.154182         0.009348         0.007572
 C         1.383341        -0.052410         0.119686
 C         2.353390        -1.354954         0.075653
 C         3.219533        -0.074770         0.090357
 C         4.658944        -0.177004         0.518981
 O         4.421055        -0.093278         2.044769
 C         3.027633         0.144062         2.371541
 C         2.437732         0.708316         1.134286
 O         2.308157         0.473067        -0.957028
 H        -0.514691        -0.793891         0.618223
 H        -0.511082         1.051088         0.243495
 H        -0.309191        -0.201249        -0.999018
 H         2.380316        -2.126310         0.889916
 H         2.412607        -1.713403        -0.990619
 H         4.797671        -1.257328         0.197516
 H         5.380899         0.592864         0.376121
 H         2.552691        -0.819547         2.857553
 H         2.965650         0.828376         3.179093
 H         2.486230         1.772474         0.960229
