19
Iteration:  3961
 C        -0.158844         0.103320        -0.135526
 C         1.372135        -0.121249         0.103475
 C         2.374833        -1.309715         0.091628
 C         3.174222        -0.025837         0.131218
 C         4.631567        -0.122356         0.521054
 O         4.495831        -0.019275         1.960984
 C         3.126708        -0.094196         2.459931
 C         2.293092         0.650858         1.253843
 O         2.349985         0.503935        -0.963610
 H        -0.546018         0.397358        -1.079603
 H        -0.793225        -0.818566         0.029518
 H        -0.524293         0.789085         0.641902
 H         2.343575        -1.986614         0.955878
 H         2.374569        -1.906202        -0.798764
 H         5.033417        -1.156963         0.216285
 H         5.364119         0.616208         0.188091
 H         2.699904        -1.096725         2.722801
 H         3.047857         0.518873         3.379077
 H         2.132974         1.762903         1.230227
