19
Iteration:  2564charge 0 multiplicity 1
 C        -0.114852         0.063878         0.068790
 C         1.416435        -0.114876         0.124997
 C         2.316284        -1.315962         0.106029
 C         3.235921        -0.136259         0.047242
 C         4.582715         0.042483         0.577911
 O         4.374968        -0.337250         1.947362
 C         3.003533         0.243002         2.370840
 C         2.359441         0.673488         1.126190
 O         2.437414         0.421666        -0.978120
 H        -0.497212        -0.532354         0.888034
 H        -0.285765         1.144954         0.104782
 H        -0.531514        -0.243179        -0.829928
 H         2.286811        -1.955492         1.007960
 H         2.329177        -1.869118        -0.886088
 H         5.446114        -0.551616         0.203650
 H         4.937500         1.050956         0.524701
 H         2.649623        -0.734028         2.832948
 H         3.250632         0.963870         3.076830
 H         2.247847         1.730879         1.052266
