19
Iteration:  3496charge 0 multiplicity 1
 C        -0.066403        -0.007588        -0.005145
 C         1.370657        -0.085928         0.095804
 C         2.312200        -1.388377         0.195073
 C         3.220140        -0.045925        -0.003297
 C         4.685821        -0.105099         0.573578
 O         4.386057        -0.240942         1.990208
 C         3.080076         0.264271         2.423780
 C         2.374446         0.650457         1.161306
 O         2.296336         0.487696        -1.060157
 H        -0.646556        -0.718462         0.615276
 H        -0.379602         1.048893         0.383603
 H        -0.324640         0.043557        -1.066205
 H         2.303585        -1.973094         1.187495
 H         2.223874        -2.108755        -0.591112
 H         5.231735        -1.030626         0.186779
 H         5.321932         0.872035         0.459129
 H         2.627879        -0.516555         3.034741
 H         3.231600         1.172825         3.098922
 H         2.192155         1.710951         1.061023
