19
Iteration:  3455
 C        -0.080511         0.097829        -0.056124
 C         1.443697        -0.131725         0.135736
 C         2.191102        -1.432972         0.121285
 C         3.243440        -0.206351         0.084839
 C         4.653218         0.036760         0.512474
 O         4.374887        -0.126572         1.921693
 C         3.080359         0.225136         2.517282
 C         2.424235         0.638407         1.121602
 O         2.339484         0.403476        -0.956856
 H        -0.648597        -0.832712         0.269202
 H        -0.448052         0.861898         0.678570
 H        -0.301095         0.565870        -1.091524
 H         2.346050        -2.102900         0.960470
 H         1.990083        -1.980588        -0.777890
 H         5.344636        -0.834452         0.352401
 H         4.998516         0.986512         0.206704
 H         2.615076        -0.669763         2.977904
 H         3.153990         0.938881         3.343621
 H         2.478723         1.741555         0.945743
