19
Iteration:  3317charge 0 multiplicity 1
 C        -0.094068         0.148565        -0.001071
 C         1.395414        -0.127745         0.174221
 C         2.264536        -1.357909         0.134598
 C         3.213850        -0.171778        -0.002283
 C         4.641763        -0.059905         0.558648
 O         4.491028         0.079553         2.040922
 C         3.011820        -0.015969         2.394433
 C         2.378207         0.497826         1.103040
 O         2.323454         0.493840        -1.015607
 H        -0.422101         0.254291         1.022597
 H        -0.176513         1.058777        -0.530922
 H        -0.747711        -0.645780        -0.468810
 H         2.286754        -2.110820         0.968364
 H         2.255985        -1.981771        -0.826337
 H         5.094952        -0.982744         0.317719
 H         5.236389         0.906583         0.301089
 H         2.671245        -1.095081         2.694941
 H         2.905333         0.695386         3.264541
 H         2.552025         1.610822         1.061789
