19
Iteration:   354charge 0 multiplicity 1
 C        -0.047121         0.160876        -0.152702
 C         1.390114        -0.114741         0.160760
 C         2.280165        -1.418254         0.060002
 C         3.197533        -0.205976         0.059247
 C         4.664770         0.079040         0.498417
 O         4.513442         0.002126         2.016194
 C         3.044864         0.088650         2.504710
 C         2.360495         0.398416         1.204065
 O         2.235719         0.450871        -0.917294
 H        -0.677416        -0.401848         0.498545
 H        -0.172218         1.354593         0.045666
 H        -0.482049         0.046963        -1.217451
 H         2.281936        -2.306740         0.736058
 H         2.127833        -1.910745        -0.889310
 H         5.455275        -0.685387         0.240649
 H         4.850187         1.108231         0.245855
 H         2.909777        -0.885944         2.931491
 H         3.115360         0.847005         3.291879
 H         2.339634         1.561793         1.076315
