19
Iteration:   461charge 0 multiplicity 1
 C        -0.040446         0.047535        -0.022816
 C         1.431843        -0.141191         0.061307
 C         2.332240        -1.362801        -0.019995
 C         3.239560        -0.122372         0.153473
 C         4.639080         0.145594         0.657237
 O         4.379587        -0.353182         1.968454
 C         3.120816         0.220478         2.467413
 C         2.303970         0.556979         1.148355
 O         2.239515         0.469225        -1.020238
 H        -0.380426        -0.283572         0.888430
 H        -0.366020         1.179070        -0.015574
 H        -0.612577        -0.551234        -0.803691
 H         2.488026        -2.011436         0.830913
 H         2.353260        -1.756881        -1.035596
 H         5.407448        -0.495286         0.209639
 H         4.792762         1.356991         0.619912
 H         2.781511        -0.493286         3.195434
 H         3.474103         1.200028         3.082687
 H         2.251221         1.687493         1.062959
