19
Iteration:   776
 C        -0.138487         0.092709         0.020673
 C         1.412833        -0.189927         0.207193
 C         2.292405        -1.392006         0.022695
 C         3.250131        -0.146260         0.018290
 C         4.654595         0.049415         0.580088
 O         4.493688        -0.011596         2.029502
 C         2.969180        -0.030031         2.370952
 C         2.358085         0.576123         1.158867
 O         2.351575         0.536358        -0.947493
 H        -0.720836        -0.195591         0.795880
 H        -0.257132         1.287881        -0.080182
 H        -0.594217        -0.357001        -0.894865
 H         2.441822        -2.255011         0.686826
 H         2.246443        -1.930221        -0.903342
 H         5.198982        -0.914715         0.170933
 H         5.197226         0.902108         0.111405
 H         2.536972        -0.963283         2.567804
 H         2.991968         0.617489         3.220084
 H         2.278824         1.730614         1.025850
