19
Iteration:   532
 C        -0.112334         0.049998        -0.199161
 C         1.321516        -0.076292         0.168305
 C         2.169418        -1.347456         0.041101
 C         3.110789        -0.137697         0.093321
 C         4.645344        -0.088665         0.600920
 O         4.609011         0.230937         2.018020
 C         3.160047        -0.146012         2.424961
 C         2.329512         0.516309         1.249215
 O         2.332768         0.524957        -0.973945
 H        -0.774529        -0.658317         0.508387
 H        -0.465566         0.962436         0.063701
 H        -0.192139        -0.169193        -1.231143
 H         2.154032        -1.889272         0.992630
 H         2.109381        -1.883981        -0.934553
 H         5.147570        -1.117108         0.688985
 H         5.329530         0.647374         0.090255
 H         3.081724        -1.284272         2.649417
 H         3.038146         0.341332         3.304930
 H         2.438632         1.566570         1.171086
