19
Iteration:  3644charge 0 multiplicity 1
 C        -0.055319         0.081285        -0.030363
 C         1.389494        -0.039870         0.219185
 C         2.143524        -1.320741         0.037457
 C         3.189867        -0.148283         0.094090
 C         4.619040        -0.178538         0.543513
 O         4.476166         0.195179         1.941737
 C         3.037938        -0.094763         2.454978
 C         2.345002         0.529303         1.186373
 O         2.447266         0.487862        -0.995843
 H        -0.436600         1.117910        -0.029369
 H        -0.413784        -0.416972        -1.002170
 H        -0.691187        -0.558834         0.771959
 H         2.222907        -2.054474         0.816810
 H         2.127646        -1.805200        -0.924557
 H         5.236575        -1.089748         0.412938
 H         5.225629         0.769342         0.225134
 H         2.936074        -1.136397         2.634052
 H         3.040991         0.508484         3.319967
 H         2.370486         1.644267         1.129158
