19
Iteration:   879
 C        -0.114462         0.058382        -0.127795
 C         1.341638        -0.121709         0.088697
 C         2.295201        -1.337204         0.024864
 C         3.155406        -0.111042         0.114352
 C         4.670557        -0.110985         0.532338
 O         4.543805         0.068948         1.997845
 C         3.128066        -0.014576         2.435113
 C         2.272744         0.525886         1.261335
 O         2.316557         0.558486        -0.907795
 H        -0.548088        -0.732352         0.609202
 H        -0.364684         0.972006         0.219078
 H        -0.455332        -0.085544        -1.111972
 H         2.101399        -2.077718         0.840135
 H         2.461266        -1.643344        -1.041117
 H         5.109967        -1.110522         0.387710
 H         5.351332         0.654346         0.094160
 H         2.903979        -1.029913         2.703830
 H         2.919906         0.613110         3.328657
 H         2.191580         1.581736         1.137164
