19
Iteration:  1898
 C        -0.105045         0.197748        -0.043144
 C         1.371887        -0.093721         0.156573
 C         2.247715        -1.427426         0.066805
 C         3.236756        -0.220743         0.064562
 C         4.690822        -0.188297         0.530124
 O         4.439248         0.304832         2.013990
 C         3.056725        -0.017515         2.392286
 C         2.386575         0.469849         1.174431
 O         2.316703         0.487344        -0.935362
 H        -0.697901        -0.649897         0.219475
 H        -0.612330         0.928175         0.703360
 H        -0.379191         0.295881        -1.144825
 H         2.495063        -2.205900         0.821804
 H         2.248960        -1.917831        -0.935556
 H         5.072037        -1.295181         0.288610
 H         5.492964         0.465981         0.176111
 H         2.797878        -1.061961         2.553040
 H         2.896033         0.454015         3.374694
 H         2.391167         1.525628         1.139700
