19
Iteration:   671charge 0 multiplicity 1
 C        -0.112488        -0.025109        -0.117199
 C         1.357662        -0.108790         0.080500
 C         2.410057        -1.399042         0.131546
 C         3.194114        -0.035982         0.095857
 C         4.634453         0.003452         0.618034
 O         4.449462        -0.288484         1.955090
 C         3.156678         0.184064         2.402001
 C         2.320603         0.550963         1.179836
 O         2.254956         0.575219        -0.931146
 H        -0.882185        -0.378171         0.714991
 H        -0.335359         1.053095        -0.054042
 H        -0.407617        -0.332793        -1.092655
 H         2.435629        -1.948199         1.074643
 H         2.305884        -1.898596        -0.838628
 H         5.183423        -0.672011         0.021082
 H         4.995818         1.081627         0.512316
 H         2.673023        -0.460283         3.155266
 H         3.325689         1.131522         2.979653
 H         2.326998         1.627565         1.008688
