19
Iteration:   370charge 0 multiplicity 1
 C        -0.058929         0.043181        -0.101775
 C         1.393054        -0.122572         0.138492
 C         2.199958        -1.388472         0.072582
 C         3.202604        -0.127703         0.041420
 C         4.581272         0.044431         0.571886
 O         4.503463        -0.087160         2.045731
 C         3.131009         0.034875         2.424089
 C         2.416694         0.593727         1.193714
 O         2.273563         0.527487        -0.978179
 H        -0.722875        -0.542224         0.675065
 H        -0.371095         1.000524        -0.176105
 H        -0.158559        -0.464494        -1.023972
 H         2.278486        -1.840214         1.105496
 H         2.205172        -2.120082        -0.827482
 H         5.264991        -0.777213         0.256607
 H         4.934398         1.087592         0.317614
 H         2.702945        -0.949296         2.861787
 H         3.045863         0.839790         3.180835
 H         2.426438         1.628706         1.017039
