19
Iteration:  2261charge 0 multiplicity 1
 C        -0.070066         0.108061        -0.154431
 C         1.377526        -0.168912         0.251196
 C         2.289170        -1.369890         0.179712
 C         3.201846        -0.090327         0.122673
 C         4.559240        -0.040681         0.482639
 O         4.466354        -0.132263         1.974094
 C         3.089100         0.127210         2.446905
 C         2.299979         0.660304         1.180867
 O         2.370036         0.430552        -1.045403
 H        -0.649373        -0.089851         0.805799
 H        -0.208109         1.092950        -0.616721
 H        -0.312076        -0.633848        -0.858581
 H         2.343320        -1.979871         1.058913
 H         2.294310        -1.910187        -0.743415
 H         5.388911        -0.785015         0.246317
 H         4.911030         0.920940         0.292913
 H         2.937099        -0.853716         2.911868
 H         3.301596         0.871171         3.290242
 H         2.073192         1.718015         1.188105
