19
Iteration:   623charge 0 multiplicity 1
 C        -0.013563         0.136811        -0.027834
 C         1.383338        -0.034818         0.077847
 C         2.253445        -1.436018         0.133630
 C         3.208230        -0.204663         0.085648
 C         4.640986         0.014093         0.515826
 O         4.447995         0.095875         2.051511
 C         3.086774        -0.117512         2.326079
 C         2.309982         0.564985         1.195642
 O         2.325751         0.501679        -0.975736
 H        -0.281141        -0.331217         0.835706
 H        -0.547202         1.166057         0.025090
 H        -0.349597        -0.532962        -0.879677
 H         2.211004        -2.010490         1.073947
 H         2.242776        -2.051532        -0.776525
 H         5.376032        -0.820777         0.348618
 H         4.909112         0.890027         0.012553
 H         2.886238        -1.163631         2.438293
 H         2.834835         0.339735         3.374302
 H         2.333717         1.724248         1.204066
