19
Iteration:  4499
 C        -0.078213         0.016800        -0.027864
 C         1.366485        -0.058353         0.167576
 C         2.321228        -1.305467        -0.045781
 C         3.176894         0.012459         0.052739
 C         4.626449         0.109916         0.608627
 O         4.485596        -0.268574         1.987629
 C         3.063504        -0.153901         2.451879
 C         2.373683         0.542120         1.276483
 O         2.294397         0.650375        -1.024479
 H        -0.588691         0.717190         0.633695
 H        -0.274922         0.349107        -1.051866
 H        -0.529497        -1.006838         0.000714
 H         2.282259        -2.107231         0.647133
 H         2.452459        -1.648648        -0.986998
 H         5.247251        -0.685895         0.101756
 H         5.155454         1.088226         0.478644
 H         2.819165        -1.130377         2.912195
 H         3.122398         0.615421         3.312228
 H         2.059088         1.575056         1.289587
