19
Iteration:  4950
 C        -0.044847         0.032771        -0.025832
 C         1.406179        -0.032506         0.145521
 C         2.366657        -1.312427        -0.081156
 C         3.194677         0.004421         0.053268
 C         4.620649         0.149357         0.560520
 O         4.498352        -0.217263         1.950797
 C         2.990477        -0.262286         2.439850
 C         2.322000         0.429116         1.251711
 O         2.286504         0.747048        -0.871663
 H        -0.121530         0.835522        -0.777951
 H        -0.353892        -0.904758        -0.461457
 H        -0.531929         0.088381         0.935363
 H         2.463636        -2.015343         0.757178
 H         2.166343        -1.915875        -1.037774
 H         5.242192        -0.659602         0.175634
 H         5.013330         1.084892         0.362461
 H         2.709651        -1.318943         2.664469
 H         2.861438         0.505331         3.263962
 H         2.149868         1.565925         1.279745
