19
Iteration:  4153
 C        -0.071708         0.058677        -0.073046
 C         1.480559        -0.098078         0.124809
 C         2.394953        -1.354608         0.034815
 C         3.239973         0.047138         0.030067
 C         4.669091         0.089432         0.554817
 O         4.403573        -0.315970         1.973524
 C         3.016970        -0.038311         2.428502
 C         2.303584         0.586540         1.275749
 O         2.237670         0.583420        -0.943304
 H        -0.636242        -0.735302         0.408903
 H        -0.503867         0.988003         0.335296
 H        -0.215644         0.002275        -1.239033
 H         2.472198        -1.974465         0.934436
 H         2.244965        -1.921715        -0.830393
 H         5.214805        -0.695874         0.139885
 H         5.082974         1.063512         0.707842
 H         2.661087        -1.072159         2.869191
 H         3.196887         0.743973         3.084196
 H         2.244907         1.667009         1.148436
