19
Iteration:  2710
 C        -0.129287         0.216613         0.021006
 C         1.419443        -0.091283         0.157184
 C         2.264895        -1.344613         0.005393
 C         3.234870        -0.163677         0.016438
 C         4.627075        -0.081500         0.595944
 O         4.454766         0.131840         2.082777
 C         3.112243        -0.042181         2.453402
 C         2.449302         0.489962         1.131019
 O         2.254208         0.395380        -1.071333
 H        -0.771127        -0.552817         0.557359
 H        -0.202783         1.163735         0.507859
 H        -0.331883         0.259782        -1.118747
 H         2.217447        -1.962248         0.923693
 H         2.118098        -1.995134        -0.818590
 H         5.040903        -1.081683         0.389874
 H         5.345293         0.693287         0.154664
 H         2.684573        -1.150795         2.834157
 H         2.711706         0.602334         3.297143
 H         2.528678         1.629201         1.073702
