19
Iteration:  4367charge 0 multiplicity 1
 C        -0.061177         0.044574        -0.099705
 C         1.482899        -0.095055         0.039140
 C         2.352082        -1.307822        -0.010830
 C         3.146536        -0.029841         0.126146
 C         4.566154         0.106501         0.531123
 O         4.478264        -0.192731         1.983089
 C         3.053805        -0.253193         2.463085
 C         2.299813         0.445648         1.277916
 O         2.320657         0.747322        -0.916557
 H        -0.365967         1.011773        -0.632415
 H        -0.633043        -0.790443        -0.459218
 H        -0.304922         0.347577         0.904376
 H         2.165312        -2.001115         0.910689
 H         2.363386        -1.714223        -1.018493
 H         5.347613        -0.604629         0.162299
 H         4.767593         1.112155         0.306041
 H         2.805347        -1.321127         2.644183
 H         3.034262         0.460667         3.390828
 H         2.383115         1.534581         1.356048
