19
Iteration:  2375charge 0 multiplicity 1
 C        -0.101747        -0.031269         0.043927
 C         1.438265        -0.013667         0.111192
 C         2.158231        -1.308508         0.045732
 C         3.259475        -0.174730         0.032987
 C         4.765823        -0.183690         0.681796
 O         4.459451         0.039156         2.077351
 C         3.063470         0.079684         2.398194
 C         2.403291         0.674501         1.138478
 O         2.254654         0.468334        -1.094253
 H        -0.489985        -0.634800         0.822707
 H        -0.420370         1.047656         0.023705
 H        -0.577003        -0.465642        -0.885747
 H         2.080200        -2.058315         0.903180
 H         2.038380        -1.689696        -0.996194
 H         5.138307        -1.274294         0.389841
 H         5.270665         0.573432         0.145597
 H         2.712993        -0.974963         2.728957
 H         2.867858         0.865211         3.234471
 H         2.539920         1.827193         1.027555
