19
Iteration:  3286charge 0 multiplicity 1
 C        -0.050046         0.121610        -0.070294
 C         1.419802        -0.121706         0.106554
 C         2.207971        -1.424431         0.111915
 C         3.145793        -0.196487         0.132656
 C         4.562377         0.029801         0.536166
 O         4.516052        -0.029322         2.011695
 C         3.081742         0.077406         2.411502
 C         2.356105         0.578887         1.173317
 O         2.351138         0.446479        -0.969645
 H        -0.343919         0.173710         0.985602
 H        -0.195853         1.194124        -0.468013
 H        -0.656743        -0.538684        -0.746654
 H         2.087759        -2.182835         0.850581
 H         2.370713        -1.765652        -0.938552
 H         5.174534        -0.715915         0.116179
 H         4.852110         1.026176         0.149705
 H         2.768641        -1.044152         2.742127
 H         3.308549         0.584688         3.338596
 H         2.499902         1.647008         1.030346
