19
Iteration:  4780charge 0 multiplicity 1
 C        -0.127617        -0.034926        -0.054665
 C         1.394524        -0.153635         0.176950
 C         2.338569        -1.286257        -0.008965
 C         3.166825         0.011343        -0.012221
 C         4.619499         0.026150         0.554527
 O         4.534191        -0.269064         2.039809
 C         3.087654        -0.091595         2.381030
 C         2.277898         0.527662         1.253728
 O         2.304418         0.790410        -0.959833
 H        -0.339144         0.688594         0.699401
 H        -0.132968         0.305896        -1.084445
 H        -0.667023        -1.000277        -0.081043
 H         2.413623        -1.843261         1.008862
 H         2.204033        -1.866743        -0.955748
 H         5.328118        -0.641386         0.203167
 H         5.046900         1.046595         0.467491
 H         2.744286        -1.203189         2.799167
 H         3.035486         0.443489         3.303180
 H         2.285579         1.585422         1.425724
