19
Iteration:  1788charge 0 multiplicity 1
 C        -0.204475         0.032894        -0.181522
 C         1.375560        -0.128417         0.139873
 C         2.415719        -1.325858         0.260550
 C         3.230815        -0.036649         0.044943
 C         4.646422         0.037495         0.491696
 O         4.421027        -0.294017         1.982804
 C         3.103335         0.068878         2.398555
 C         2.362165         0.677376         1.186209
 O         2.285695         0.530071        -0.926042
 H        -0.682473         0.127842         0.848831
 H        -0.413458         0.871693        -0.891686
 H        -0.589888        -0.887146        -0.706583
 H         2.597444        -1.888439         1.207084
 H         2.562386        -2.139289        -0.480284
 H         5.260357        -0.761251        -0.027124
 H         5.115837         0.988518         0.298007
 H         2.539332        -0.733301         2.914494
 H         3.233458         0.799719         3.197719
 H         2.337544         1.769064         1.198930
