19
Iteration:  1771charge 0 multiplicity 1
 C        -0.055983        -0.031570        -0.046085
 C         1.391949        -0.167364         0.147157
 C         2.373510        -1.326089         0.182970
 C         3.154390         0.052619         0.125868
 C         4.601334         0.026503         0.555041
 O         4.407514        -0.364559         1.877128
 C         3.052363         0.188569         2.445668
 C         2.309315         0.617806         1.170436
 O         2.396226         0.531922        -1.005876
 H        -0.607053         0.272077         0.804347
 H        -0.163984         0.783992        -0.795603
 H        -0.553420        -0.897197        -0.462747
 H         2.296127        -1.787279         1.168292
 H         2.340807        -1.901715        -0.742376
 H         5.191754        -0.762343         0.107902
 H         5.000417         1.115094         0.399146
 H         2.688330        -0.790655         2.882411
 H         3.223388         1.026494         3.143003
 H         2.227512         1.765121         1.130891
