19
Iteration:  2051
 C        -0.046950        -0.052410         0.109682
 C         1.417918        -0.070936         0.065295
 C         2.373903        -1.346727        -0.020290
 C         3.276729        -0.020280         0.105449
 C         4.694791        -0.057813         0.616604
 O         4.366031        -0.282841         2.037685
 C         3.017684         0.222917         2.394764
 C         2.397454         0.672772         1.133465
 O         2.221317         0.500977        -1.037388
 H        -0.410029        -0.320542         1.043851
 H        -0.558031         0.944026        -0.180876
 H        -0.575621        -0.676140        -0.625087
 H         2.570475        -1.967840         0.852022
 H         2.168492        -1.989532        -0.878036
 H         5.391939        -0.930712         0.378044
 H         5.076136         0.877939         0.374171
 H         2.275753        -0.588789         2.719527
 H         3.132523         1.105305         3.043793
 H         2.376853         1.718269         0.957734
