19
Iteration:  2122charge 0 multiplicity 1
 C        -0.117834         0.160127        -0.269146
 C         1.272406        -0.137518         0.189462
 C         2.121624        -1.416646         0.192113
 C         3.200553        -0.203000         0.111257
 C         4.644115         0.082373         0.511157
 O         4.585411        -0.007134         2.006039
 C         3.190553         0.051979         2.415596
 C         2.405085         0.581233         1.236339
 O         2.311075         0.372589        -0.900189
 H        -0.827518        -0.741546         0.062976
 H        -0.573024         1.072846         0.057006
 H        -0.056430         0.167776        -1.396009
 H         2.156102        -2.169015         1.038496
 H         2.234960        -1.974379        -0.794276
 H         5.349207        -0.479015        -0.025418
 H         4.792848         1.175661         0.251645
 H         2.884062        -0.929265         2.598039
 H         2.919660         0.713168         3.224341
 H         2.607069         1.725787         1.209630
