19
Iteration:  1278charge 0 multiplicity 1
 C        -0.095176        -0.068398        -0.045774
 C         1.408232        -0.005546         0.112704
 C         2.228564        -1.269985         0.109237
 C         3.227692        -0.158732         0.074481
 C         4.617953        -0.095441         0.495712
 O         4.466686        -0.106862         2.005582
 C         3.053002         0.034409         2.433701
 C         2.335363         0.673405         1.137932
 O         2.375434         0.538299        -0.936456
 H        -0.371238        -0.817651         0.624883
 H        -0.666317         0.955769         0.357472
 H        -0.357539        -0.366471        -1.088293
 H         2.194031        -1.901989         1.011696
 H         2.340693        -1.839410        -0.845451
 H         5.301340        -0.893890         0.329575
 H         5.113622         0.871077         0.289960
 H         2.692963        -0.933446         2.895246
 H         2.907306         0.799654         3.224929
 H         2.490489         1.746327         0.828977
