19
Iteration:  2210
 C        -0.091154        -0.009903         0.087524
 C         1.448019         0.011085        -0.000317
 C         2.182094        -1.365467        -0.017602
 C         3.252378        -0.196006         0.138387
 C         4.649205        -0.211918         0.680099
 O         4.482501         0.157172         2.075318
 C         3.026257         0.059675         2.377073
 C         2.389412         0.550029         1.112897
 O         2.249906         0.537817        -1.077368
 H        -0.326677         0.058938         1.160835
 H        -0.382708         0.836841        -0.433436
 H        -0.574204        -0.853328        -0.422344
 H         2.263536        -2.002395         0.897424
 H         2.164124        -1.975840        -0.979561
 H         5.156323        -1.152609         0.716491
 H         5.286648         0.554285         0.274903
 H         2.922389        -0.968882         2.570049
 H         3.111672         0.575276         3.321330
 H         2.805544         1.607995         0.937330
