19
Iteration:  1150charge 0 multiplicity 1
 C        -0.068987         0.007705        -0.130307
 C         1.361990        -0.047757         0.107845
 C         2.297775        -1.321999         0.132586
 C         3.148786        -0.001079         0.119079
 C         4.548090        -0.082645         0.521219
 O         4.541094        -0.055989         1.987452
 C         3.083722        -0.069365         2.443089
 C         2.315558         0.652790         1.214282
 O         2.345627         0.534473        -0.980608
 H        -0.574573        -0.286821         0.813415
 H        -0.331106         0.927937        -0.495857
 H        -0.229380        -0.788390        -0.884462
 H         2.279018        -1.912036         1.022962
 H         2.385106        -2.086303        -0.647982
 H         4.960917        -1.111627         0.305491
 H         5.305541         0.623762         0.157963
 H         2.700209        -1.110452         2.722762
 H         3.110246         0.563076         3.370149
 H         2.388311         1.721119         1.183101
