19
Iteration:  4697
 C        -0.096539         0.031339        -0.044005
 C         1.335450        -0.127464         0.063594
 C         2.449374        -1.263866        -0.070439
 C         3.226547         0.015846         0.130189
 C         4.600811         0.084252         0.587953
 O         4.495340        -0.338375         1.903658
 C         2.988566        -0.090247         2.434680
 C         2.300969         0.552980         1.272101
 O         2.295168         0.667933        -0.856951
 H        -0.402481         0.975670        -0.528500
 H        -0.535646        -0.775188        -0.683197
 H        -0.472689         0.062546         1.024781
 H         2.464627        -2.101002         0.635321
 H         2.544112        -1.724996        -0.969365
 H         5.405670        -0.532257         0.033400
 H         4.879698         1.202923         0.629877
 H         2.697312        -1.055587         2.534400
 H         3.308381         0.394043         3.391699
 H         2.223523         1.681250         1.248158
