19
Iteration:  1333
 C        -0.015099         0.220815        -0.193223
 C         1.422283        -0.130636         0.136115
 C         2.240850        -1.438467         0.025414
 C         3.173370        -0.273986         0.178642
 C         4.585765        -0.032275         0.575122
 O         4.478172         0.159985         1.928157
 C         3.090909        -0.046965         2.415899
 C         2.409281         0.495210         1.260831
 O         2.206659         0.510689        -0.852362
 H        -0.552702        -0.030112         0.636599
 H         0.002567         1.354030        -0.570244
 H        -0.326651        -0.561547        -0.909234
 H         2.449149        -2.182685         0.795457
 H         2.337471        -1.986016        -0.926961
 H         5.292568        -0.816126         0.385637
 H         4.930299         0.923786         0.127800
 H         2.912468        -1.236514         2.593719
 H         3.007449         0.523839         3.364024
 H         2.519736         1.599496         1.063407
