19
Iteration:  4255
 C        -0.065443         0.044988        -0.085015
 C         1.396693        -0.014386         0.105126
 C         2.280984        -1.278124        -0.058913
 C         3.239443         0.001046         0.095785
 C         4.648678        -0.022699         0.586761
 O         4.503477        -0.051402         2.012464
 C         3.079156        -0.248083         2.436531
 C         2.345359         0.481899         1.297866
 O         2.229116         0.612973        -0.943932
 H        -0.537042         0.743293         0.632879
 H        -0.130462         0.494529        -1.105850
 H        -0.675324        -0.770317        -0.025948
 H         2.475403        -2.086053         0.606067
 H         2.373596        -1.740794        -1.113006
 H         5.360401        -0.835427         0.414694
 H         5.114895         0.873604         0.308252
 H         2.802825        -1.318761         2.616081
 H         2.754143         0.395970         3.341443
 H         2.067109         1.526899         1.247085
