19
Iteration:  2608
 C        -0.077239         0.117747        -0.168085
 C         1.424882        -0.043208         0.169739
 C         2.356351        -1.369283         0.210520
 C         3.155451        -0.107123         0.068598
 C         4.602714        -0.003656         0.521421
 O         4.463147        -0.233560         1.936956
 C         3.114356         0.048154         2.467047
 C         2.309108         0.641060         1.233063
 O         2.267354         0.487778        -0.956018
 H        -0.791697         0.210003         0.632679
 H         0.001618         0.895501        -0.916530
 H        -0.297976        -0.696630        -0.803130
 H         2.443248        -1.799420         1.215772
 H         2.347050        -2.114204        -0.642058
 H         5.347863        -0.698060         0.076518
 H         4.915812         0.982320         0.197964
 H         2.591559        -0.902053         2.870966
 H         3.222397         0.800379         3.185113
 H         2.326548         1.682029         1.015286
