19
Iteration:  2293charge 0 multiplicity 1
 C        -0.055275         0.139911        -0.216642
 C         1.395422        -0.130937         0.059640
 C         2.244934        -1.413063         0.291817
 C         3.200274        -0.193563         0.178550
 C         4.605872         0.154600         0.569733
 O         4.461412        -0.265863         1.948063
 C         3.171442         0.146069         2.447977
 C         2.424032         0.645107         1.103757
 O         2.235172         0.395719        -0.960414
 H        -0.837573        -0.365492         0.434210
 H        -0.424399         1.158851         0.060460
 H        -0.330981        -0.191391        -1.195173
 H         2.129909        -1.816464         1.272263
 H         2.332401        -2.169015        -0.450450
 H         5.501267        -0.157384         0.098834
 H         4.635826         1.323551         0.309089
 H         2.700637        -0.740320         2.852939
 H         3.307388         0.860451         3.265377
 H         2.425876         1.663358         0.882498
