19
Iteration:    28
 C        -0.032568         0.175848        -0.103200
 C         1.375410        -0.183999         0.117399
 C         2.112270        -1.528384        -0.014248
 C         3.194560        -0.241023         0.092967
 C         4.626174         0.112292         0.541579
 O         4.535360         0.097672         2.009000
 C         3.111650         0.081672         2.500420
 C         2.316696         0.411470         1.220579
 O         2.402680         0.471173        -0.929631
 H        -0.671803        -0.184327         0.786704
 H        -0.175270         1.337248        -0.128469
 H        -0.571875        -0.155257        -1.084774
 H         2.010696        -2.465309         0.593145
 H         2.207344        -1.888681        -1.069594
 H         5.495209        -0.558957         0.317366
 H         4.545881         1.176990         0.288647
 H         2.906671        -0.946428         2.882702
 H         2.959363         0.928935         3.193910
 H         2.267818         1.552989         1.239905
