19
Iteration:  2200
 C        -0.085366         0.067392         0.076385
 C         1.391824        -0.085480         0.057594
 C         2.222179        -1.345397        -0.024088
 C         3.243529        -0.231203         0.090125
 C         4.622347        -0.169207         0.709548
 O         4.504626         0.201408         2.069014
 C         3.059899        -0.006409         2.438810
 C         2.470334         0.587025         1.067061
 O         2.290928         0.503372        -1.079245
 H        -0.490618        -0.069017         1.089892
 H        -0.523724         1.003376        -0.283471
 H        -0.506988        -0.880618        -0.401698
 H         2.036899        -2.128171         0.755864
 H         2.005461        -1.806571        -1.047270
 H         4.925510        -1.144480         0.533947
 H         5.305333         0.509909         0.137751
 H         2.830249        -1.023229         2.681992
 H         2.627571         0.593860         3.195219
 H         2.397925         1.717349         1.065283
