19
Iteration:   719charge 0 multiplicity 1
 C        -0.088838        -0.102680        -0.046016
 C         1.362772        -0.125122         0.227954
 C         2.336296        -1.256626         0.139895
 C         3.209758         0.009445         0.057377
 C         4.625314         0.021429         0.627695
 O         4.355256        -0.421710         1.904774
 C         3.101696         0.185373         2.345070
 C         2.380164         0.688656         1.125987
 O         2.351674         0.563826        -0.961785
 H        -0.615229        -0.670283         0.771956
 H        -0.693052         0.789042         0.022218
 H        -0.292750        -0.712128        -0.976326
 H         2.483469        -1.734159         1.110391
 H         2.572457        -1.745564        -0.801907
 H         5.321001        -0.764973         0.138196
 H         5.013012         1.112906         0.656256
 H         2.501971        -0.484353         2.996593
 H         3.368820         0.979782         2.949479
 H         2.325906         1.739125         0.858151
