19
Iteration:    60charge 0 multiplicity 1
 C        -0.051319         0.246747        -0.132146
 C         1.363930        -0.155948         0.096057
 C         2.233708        -1.493852         0.096469
 C         3.210658        -0.148473         0.100589
 C         4.683048         0.051098         0.540289
 O         4.474093         0.229503         1.982406
 C         3.077304        -0.102249         2.414830
 C         2.337776         0.403764         1.237982
 O         2.291481         0.430748        -0.915699
 H        -0.717218        -0.183144         0.695471
 H        -0.159710         1.418320        -0.103477
 H        -0.474837        -0.142009        -1.152153
 H         2.142616        -2.249844         0.912148
 H         2.360771        -2.006013        -0.910340
 H         5.362477        -0.854430         0.349920
 H         5.289334         0.817701         0.060851
 H         2.922513        -1.154355         2.724526
 H         2.889026         0.465595         3.347543
 H         2.298378         1.553693         1.313002
