19
Iteration:  2325charge 0 multiplicity 1
 C        -0.034184         0.065652        -0.039561
 C         1.388800        -0.143077         0.222030
 C         2.284812        -1.337988         0.131686
 C         3.196280        -0.042900         0.164927
 C         4.662111        -0.056946         0.520674
 O         4.388050        -0.174115         1.959882
 C         3.088998         0.211770         2.435726
 C         2.321707         0.613351         1.130115
 O         2.385393         0.389639        -1.027054
 H        -0.618322        -0.845171         0.324702
 H        -0.517517         1.083763         0.229667
 H        -0.193899         0.078423        -1.120412
 H         2.184520        -1.936885         1.036217
 H         2.339852        -1.917582        -0.765857
 H         5.047843        -0.921441         0.110236
 H         4.994337         0.953615         0.062054
 H         2.611457        -0.545677         3.011117
 H         3.134163         1.083727         3.015368
 H         2.169481         1.629460         0.938936
