19
Iteration:   783charge 0 multiplicity 1
 C        -0.116992         0.157423        -0.034102
 C         1.344234        -0.197561         0.211002
 C         2.279817        -1.423483        -0.002834
 C         3.230591        -0.124477         0.017707
 C         4.659092         0.020879         0.611784
 O         4.524923         0.076091         1.970684
 C         2.939172        -0.041188         2.411930
 C         2.383038         0.475789         1.158059
 O         2.337351         0.534964        -0.934520
 H        -0.657528        -0.255894         0.995622
 H        -0.099774         1.199695        -0.094521
 H        -0.562282        -0.316555        -0.950136
 H         2.366132        -2.086848         0.885549
 H         2.311248        -1.897134        -0.993324
 H         5.276928        -0.830887         0.276529
 H         5.254202         0.883772         0.209063
 H         2.609615        -1.105037         2.758939
 H         3.054636         0.549504         3.312663
 H         2.447611         1.515834         1.089873
