19
Iteration:  3720
 C        -0.060960         0.102848        -0.122145
 C         1.367713        -0.145962         0.200760
 C         2.248719        -1.322550         0.119832
 C         3.172660        -0.154784         0.078999
 C         4.544764         0.034325         0.534541
 O         4.485256        -0.110832         1.951577
 C         3.064802         0.007804         2.413149
 C         2.413352         0.522020         1.238875
 O         2.369036         0.526070        -0.958980
 H        -0.178380         0.674253        -1.029979
 H        -0.577335        -0.873606        -0.308629
 H        -0.534716         0.797224         0.751952
 H         2.242728        -1.985003         0.953292
 H         2.079511        -1.827409        -0.802100
 H         5.466753        -0.626595         0.364478
 H         4.908516         1.128134         0.216099
 H         2.766956        -0.977907         2.626138
 H         3.122218         0.724701         3.176622
 H         2.448794         1.629905         1.155924
