19
Iteration:   737
 C        -0.094388        -0.126460         0.029312
 C         1.450295        -0.032287         0.046802
 C         2.322546        -1.321529         0.185379
 C         3.251681        -0.021357         0.057260
 C         4.658222         0.067429         0.526781
 O         4.402853        -0.385800         1.987389
 C         3.013117         0.123951         2.407221
 C         2.354399         0.688248         1.156928
 O         2.325590         0.589062        -1.057898
 H        -0.519715        -0.722289         1.022295
 H        -0.487262         0.852296        -0.002549
 H        -0.469815        -0.628008        -0.846266
 H         2.276612        -1.738153         1.187686
 H         1.990946        -1.908030        -0.705955
 H         5.317330        -0.703045         0.254625
 H         5.206292         1.019280         0.431177
 H         2.686519        -0.803459         2.985357
 H         3.033645         0.923800         3.234223
 H         2.267441         1.752586         1.192283
