19
Iteration:  3205
 C        -0.182755        -0.002756        -0.032884
 C         1.376440        -0.042179         0.128928
 C         2.300340        -1.286467         0.168296
 C         3.197584        -0.074103         0.028433
 C         4.636672        -0.068581         0.571599
 O         4.376178        -0.200891         1.939375
 C         3.103421         0.143633         2.393620
 C         2.396730         0.621340         1.169244
 O         2.409712         0.466888        -0.980359
 H        -0.608850        -0.953132         0.305709
 H        -0.649129         0.816873         0.444526
 H        -0.432939        -0.093420        -1.081796
 H         2.305230        -1.659366         1.259685
 H         2.198083        -1.991835        -0.661422
 H         5.207420        -0.863129         0.102350
 H         5.184750         0.919795         0.449275
 H         2.885761        -0.833954         3.026940
 H         3.337341         0.980527         3.143480
 H         2.481032         1.764821         1.086306
