19
Iteration:   850
 C        -0.044119         0.133959        -0.241066
 C         1.337476        -0.102398         0.193368
 C         2.200232        -1.404171         0.004656
 C         3.121919        -0.237136         0.020629
 C         4.629174        -0.081065         0.583845
 O         4.499720         0.298778         1.940523
 C         3.183940        -0.122111         2.490388
 C         2.357246         0.399360         1.306780
 O         2.307343         0.592994        -0.845704
 H        -0.691998        -0.522346         0.445290
 H        -0.391643         1.197015        -0.075868
 H        -0.309540        -0.112619        -1.323807
 H         2.202608        -2.176751         0.814422
 H         2.033037        -1.927144        -0.922405
 H         5.241532        -0.988033         0.521940
 H         5.337493         0.572429         0.055968
 H         3.193896        -1.292326         2.619092
 H         2.995030         0.328388         3.458687
 H         2.469406         1.469660         1.143957
