19
Iteration:  4349charge 0 multiplicity 1
 C        -0.125245         0.131835        -0.072199
 C         1.345479        -0.087187         0.095603
 C         2.345934        -1.354804        -0.112523
 C         3.237035        -0.022338         0.098237
 C         4.678904         0.096538         0.574179
 O         4.440933        -0.128989         1.981353
 C         3.030656        -0.199201         2.370748
 C         2.314777         0.426418         1.262021
 O         2.322571         0.652703        -0.782544
 H        -0.270297         0.981955        -0.660219
 H        -0.366020        -0.775405        -0.616952
 H        -0.749868         0.389387         0.814986
 H         2.592640        -2.031852         0.758889
 H         2.569915        -1.909146        -1.002707
 H         5.199241        -0.714073         0.047284
 H         5.230962         1.095888         0.309823
 H         2.840889        -1.260854         2.510707
 H         3.026061         0.270458         3.295854
 H         2.201191         1.520327         1.327399
