19
Iteration:  4038
 C        -0.001982         0.160809        -0.028407
 C         1.411459        -0.117642        -0.009996
 C         2.273470        -1.359340         0.094027
 C         3.188651        -0.095420         0.024386
 C         4.598445         0.030570         0.535556
 O         4.531568        -0.083572         2.003073
 C         3.033384        -0.032410         2.477019
 C         2.260202         0.480032         1.231477
 O         2.334802         0.530799        -0.948665
 H        -0.513565         0.067257        -0.999442
 H        -0.545658        -0.609666         0.655164
 H        -0.359967         1.092158         0.280468
 H         2.430384        -1.947630         1.053361
 H         2.256768        -2.067019        -0.788310
 H         5.195922        -0.874372         0.191830
 H         4.888547         1.039587         0.222904
 H         2.826003        -1.004242         2.613347
 H         2.894022         0.597688         3.377670
 H         2.330953         1.589284         1.183324
