19
Iteration:  2318charge 0 multiplicity 1
 C        -0.058143         0.110315        -0.103858
 C         1.390651        -0.124251         0.236111
 C         2.265382        -1.339026         0.158907
 C         3.188859        -0.087666         0.096036
 C         4.630214         0.063776         0.559593
 O         4.444311        -0.218919         1.978533
 C         3.090936         0.199140         2.412813
 C         2.319959         0.590602         1.163451
 O         2.369310         0.350929        -1.038786
 H        -0.736153        -0.654923         0.297964
 H        -0.562453         0.913366         0.245544
 H        -0.262440        -0.010270        -1.161807
 H         2.268828        -1.882328         1.110531
 H         2.215036        -2.028948        -0.715609
 H         5.183623        -0.858281         0.043748
 H         5.101315         0.995148         0.226598
 H         2.768716        -0.621167         3.113593
 H         3.183948         1.183440         3.064877
 H         2.314956         1.724132         1.013731
