19
Iteration:  4313charge 0 multiplicity 1
 C        -0.088243         0.103926        -0.069361
 C         1.467199        -0.056165         0.060999
 C         2.256771        -1.331239        -0.196783
 C         3.142234        -0.042089         0.112399
 C         4.614515         0.042745         0.574593
 O         4.493533        -0.044282         2.049095
 C         3.124541        -0.222283         2.485712
 C         2.332914         0.397112         1.263592
 O         2.267842         0.661740        -0.885824
 H        -0.335798         1.095150        -0.437349
 H        -0.438739        -0.524545        -0.830509
 H        -0.629691        -0.199465         0.759433
 H         2.314024        -1.961589         0.744426
 H         2.469004        -1.752500        -1.182072
 H         5.259031        -0.849287         0.378214
 H         5.115056         0.954453         0.308165
 H         2.888354        -1.278085         2.653678
 H         2.983095         0.281166         3.493974
 H         2.417312         1.496071         1.281464
