19
Iteration:  4828
 C        -0.047983         0.109425        -0.035962
 C         1.424501        -0.091380         0.027577
 C         2.223609        -1.360288        -0.084153
 C         3.186127        -0.118731         0.141551
 C         4.593458         0.067295         0.554409
 O         4.546992        -0.044314         2.041753
 C         3.084668        -0.206151         2.431313
 C         2.292449         0.420569         1.244330
 O         2.287500         0.722658        -0.930299
 H        -0.345451         0.685155         0.849416
 H        -0.431305         0.477110        -0.988082
 H        -0.276771        -0.948328         0.021641
 H         2.288784        -2.032982         0.806479
 H         2.359549        -1.870429        -1.042246
 H         5.265465        -0.724491         0.155413
 H         4.907032         1.010143         0.203415
 H         3.023119        -1.317388         2.613561
 H         2.956033         0.286729         3.446679
 H         2.243994         1.578630         1.354705
