19
Iteration:  4256charge 0 multiplicity 1
 C        -0.065108         0.044298        -0.090164
 C         1.405731        -0.011572         0.118736
 C         2.271543        -1.278881        -0.058777
 C         3.235828         0.001204         0.091381
 C         4.634325        -0.021141         0.588993
 O         4.502154        -0.049227         2.014502
 C         3.082543        -0.250082         2.432196
 C         2.345149         0.479763         1.294620
 O         2.237426         0.612007        -0.947734
 H        -0.536551         0.753202         0.620442
 H        -0.159181         0.464825        -1.084921
 H        -0.647176        -0.758584        -0.014740
 H         2.513951        -2.094905         0.595068
 H         2.376646        -1.712713        -1.128106
 H         5.366788        -0.833340         0.398266
 H         5.124969         0.845339         0.307177
 H         2.825131        -1.285963         2.633367
 H         2.761895         0.379364         3.367653
 H         2.045222         1.519093         1.269277
