19
Iteration:  2018charge 0 multiplicity 1
 C        -0.123400        -0.036407         0.138922
 C         1.461764        -0.121403         0.132096
 C         2.307345        -1.360905         0.074730
 C         3.224653        -0.049523         0.033975
 C         4.617240         0.079342         0.632118
 O         4.387325        -0.353253         1.985612
 C         2.996594         0.184836         2.350496
 C         2.367489         0.659357         1.075592
 O         2.400467         0.520795        -1.050189
 H        -0.374847         0.148054         1.137736
 H        -0.308967         0.961140        -0.453915
 H        -0.514024        -1.002075        -0.301433
 H         2.456631        -1.833637         1.039882
 H         2.161668        -2.049695        -0.769112
 H         5.509793        -0.456621         0.135456
 H         4.866816         1.113669         0.495881
 H         2.271733        -0.578553         2.842479
 H         3.133618         0.874270         3.212954
 H         2.399027         1.705902         0.982218
