19
Iteration:   467
 C        -0.040209         0.052580        -0.046225
 C         1.397802        -0.165982         0.060088
 C         2.328284        -1.356850        -0.035922
 C         3.198202        -0.106686         0.082860
 C         4.615092         0.141128         0.644660
 O         4.399899        -0.303245         2.001035
 C         3.175715         0.188007         2.457304
 C         2.299683         0.595715         1.183530
 O         2.282142         0.466636        -0.990284
 H        -0.431688        -0.374751         0.994357
 H        -0.126241         1.080325        -0.006865
 H        -0.645968        -0.384135        -0.806329
 H         2.383785        -2.009429         0.874038
 H         2.366294        -2.009229        -0.945125
 H         5.382155        -0.533615         0.269860
 H         4.707818         1.146336         0.607327
 H         2.657061        -0.557575         3.124132
 H         3.368004         1.029504         2.997183
 H         2.154524         1.648905         1.109783
