19
Iteration:  3337charge 0 multiplicity 1
 C        -0.119209         0.130663         0.026150
 C         1.420867        -0.127003        -0.011397
 C         2.244611        -1.389562         0.018583
 C         3.161558        -0.101261         0.143248
 C         4.651886        -0.143883         0.613778
 O         4.492800         0.063741         2.054511
 C         3.128744         0.048011         2.391895
 C         2.356593         0.599489         1.179836
 O         2.292384         0.456110        -1.031214
 H        -0.504631         0.112172         1.038831
 H        -0.314382         0.992768        -0.442726
 H        -0.603698        -0.616888        -0.631987
 H         2.307155        -1.925505         1.031979
 H         2.316752        -2.136493        -0.809294
 H         5.100207        -1.138874         0.489676
 H         5.125296         0.701361         0.023064
 H         2.890857        -0.888593         2.556231
 H         3.191180         0.511278         3.381051
 H         2.213167         1.716583         1.194118
