19
Iteration:  2144charge 0 multiplicity 1
 C        -0.061137         0.220267        -0.196220
 C         1.385504        -0.160602         0.100212
 C         2.219252        -1.431169         0.132469
 C         3.151684        -0.217897         0.160998
 C         4.625249         0.037917         0.472161
 O         4.527302         0.121877         1.989022
 C         3.169355         0.009259         2.490448
 C         2.322365         0.478568         1.252944
 O         2.292061         0.387456        -0.947025
 H        -0.774679        -0.511444         0.344871
 H        -0.333515         1.221115         0.056335
 H        -0.140888         0.239791        -1.322460
 H         2.233250        -1.966622         1.121898
 H         1.950658        -2.072150        -0.759313
 H         5.184360        -0.812401         0.132889
 H         5.056883         0.959915         0.116345
 H         2.996723        -0.988315         2.779481
 H         3.014226         0.746945         3.300642
 H         2.382917         1.632533         1.156656
