19
Iteration:  1681charge 0 multiplicity 1
 C        -0.096852         0.051928        -0.097049
 C         1.419545        -0.109889         0.174002
 C         2.290431        -1.416174         0.184666
 C         3.191003        -0.046637         0.076415
 C         4.573140        -0.033058         0.448380
 O         4.422875        -0.060757         2.035755
 C         3.051841         0.022451         2.340150
 C         2.383640         0.652726         1.223286
 O         2.390835         0.472728        -0.941466
 H        -0.594963        -0.656838         0.439550
 H        -0.267537         1.047313         0.330049
 H        -0.141760        -0.100444        -1.174793
 H         2.299579        -2.133922         1.027276
 H         2.213446        -1.848829        -0.833340
 H         5.151615        -0.849121         0.167048
 H         4.980234         0.989042         0.077149
 H         2.756972        -1.062095         2.583599
 H         2.968211         0.670190         3.191146
 H         2.288204         1.735039         1.042272
