19
Iteration:  2569charge 0 multiplicity 1
 C        -0.100173         0.086396         0.072519
 C         1.411566        -0.114733         0.156595
 C         2.300890        -1.372715         0.110869
 C         3.237436        -0.096754         0.055180
 C         4.574286         0.043939         0.559418
 O         4.383214        -0.331904         1.928355
 C         3.017755         0.211634         2.364667
 C         2.294056         0.691162         1.137191
 O         2.472254         0.418499        -0.996011
 H        -0.741179        -0.382739         0.923186
 H        -0.419373         1.145508         0.058208
 H        -0.446933        -0.397860        -0.958189
 H         2.323133        -2.078640         0.942008
 H         2.382690        -1.930202        -0.787574
 H         5.449157        -0.510047         0.225242
 H         5.064144         1.090253         0.634531
 H         2.670162        -0.676443         2.847258
 H         3.342985         0.969356         3.183208
 H         2.283126         1.822430         1.082594
