19
Iteration:  1396charge 0 multiplicity 1
 C        -0.024191         0.099711        -0.012482
 C         1.385479        -0.136169         0.113700
 C         2.242619        -1.381476         0.002845
 C         3.211236        -0.163251         0.102114
 C         4.678371        -0.083298         0.508271
 O         4.428273         0.091759         2.041981
 C         2.981882         0.018478         2.349790
 C         2.386113         0.530924         1.165928
 O         2.343423         0.514509        -0.889901
 H        -0.546848        -0.246638         0.882200
 H        -0.354426         1.182048         0.065983
 H        -0.490316        -0.391814        -0.871003
 H         2.421755        -1.989209         0.918395
 H         2.294237        -2.008426        -0.902136
 H         5.217646        -1.013326         0.391329
 H         5.069215         0.824756        -0.046604
 H         2.783696        -1.019608         2.532322
 H         2.840707         0.539870         3.313048
 H         2.504187         1.645800         1.075263
