19
Iteration:  2377
 C        -0.113134        -0.025742         0.027404
 C         1.437065        -0.003926         0.123565
 C         2.161058        -1.320410         0.025532
 C         3.255641        -0.172704         0.040465
 C         4.752467        -0.176576         0.689043
 O         4.470522         0.045808         2.069946
 C         3.055944         0.074569         2.403199
 C         2.399906         0.681975         1.144292
 O         2.261509         0.454256        -1.087727
 H        -0.423409        -0.599422         0.931594
 H        -0.368213         1.152143         0.046609
 H        -0.538168        -0.532323        -0.911873
 H         2.087611        -2.078890         0.889761
 H         1.972662        -1.737511        -0.981996
 H         5.150428        -1.223507         0.401437
 H         5.317921         0.589580         0.092593
 H         2.694435        -0.986264         2.694785
 H         2.904294         0.785944         3.219353
 H         2.530012         1.786764         1.011541
