19
Iteration:  2400
 C        -0.088537         0.158967         0.015181
 C         1.411621        -0.102795         0.092372
 C         2.246767        -1.393721         0.106495
 C         3.183337        -0.190915         0.095691
 C         4.588838        -0.122587         0.535454
 O         4.453254         0.107182         2.018189
 C         3.063915         0.030633         2.381110
 C         2.371846         0.547583         1.141824
 O         2.402274         0.474381        -0.941296
 H        -0.612531        -0.140600         0.995102
 H        -0.356746         1.247038        -0.461151
 H        -0.522855        -0.586821        -0.718267
 H         2.216677        -2.092839         0.989305
 H         2.418840        -1.861794        -0.869202
 H         5.082746        -1.081269         0.228650
 H         5.068646         0.745377        -0.054559
 H         2.818975        -1.068130         2.603518
 H         2.824777         0.638153         3.210914
 H         2.468288         1.613098         0.983999
