19
Iteration:  3065
 C        -0.059858         0.132605        -0.156561
 C         1.393130        -0.123538         0.074182
 C         2.206856        -1.372054         0.082588
 C         3.207650        -0.142285         0.085256
 C         4.621310        -0.070903         0.491659
 O         4.511528        -0.027032         1.926108
 C         3.111315         0.073141         2.527404
 C         2.337475         0.561916         1.251752
 O         2.286917         0.495525        -0.879460
 H        -0.619630         0.033241         0.842721
 H        -0.153603         1.112318        -0.660881
 H        -0.438501        -0.799082        -0.766945
 H         2.149932        -1.957573         0.984307
 H         2.330363        -1.892296        -0.817108
 H         5.040416        -1.092410         0.265388
 H         5.313122         0.713540         0.003619
 H         2.840380        -0.897641         2.962446
 H         3.039912         0.722129         3.410277
 H         2.332777         1.695211         1.305749
