19
Iteration:  4672charge 0 multiplicity 1
 C        -0.078525         0.002093        -0.017760
 C         1.331404        -0.081331         0.195361
 C         2.279681        -1.266022        -0.107330
 C         3.238416         0.042428         0.070953
 C         4.587173         0.120747         0.513835
 O         4.445867        -0.223794         2.042381
 C         3.059499        -0.203093         2.391696
 C         2.379427         0.435690         1.247717
 O         2.400415         0.719341        -0.929217
 H        -0.291685         0.721682        -0.786306
 H        -0.438423        -0.899377        -0.520006
 H        -0.664606         0.205359         0.949521
 H         2.364769        -2.151481         0.653190
 H         2.173596        -1.850199        -1.084032
 H         5.268569        -0.592138         0.162770
 H         5.018142         1.130483         0.484429
 H         2.633327        -1.225313         2.670238
 H         3.151307         0.494751         3.174818
 H         2.108725         1.473965         1.505638
