19
Iteration:  2577charge 0 multiplicity 1
 C        -0.081729         0.110252         0.014492
 C         1.386883        -0.103169         0.228492
 C         2.298308        -1.450176         0.158758
 C         3.172086        -0.016493         0.096543
 C         4.664970         0.079623         0.570120
 O         4.384596        -0.323051         1.907374
 C         3.084931         0.128960         2.396711
 C         2.253575         0.681203         1.168369
 O         2.482554         0.438593        -1.073698
 H        -0.766933        -0.183400         0.885031
 H        -0.397359         1.120793        -0.132051
 H        -0.340703        -0.552531        -0.846402
 H         2.336324        -2.134656         0.993122
 H         2.307119        -1.959787        -0.822675
 H         5.248118        -0.680926         0.122878
 H         4.913141         1.150922         0.433110
 H         2.450519        -0.620911         2.999881
 H         3.167179         0.955335         3.063067
 H         2.290174         1.720501         0.911005
