19
Iteration:  3199
 C        -0.174886        -0.010116        -0.005310
 C         1.360088        -0.022566         0.090080
 C         2.318076        -1.291872         0.175390
 C         3.259637        -0.079439         0.036823
 C         4.604045        -0.055992         0.553482
 O         4.406213        -0.218477         1.945363
 C         3.106004         0.133262         2.450839
 C         2.388196         0.624794         1.118023
 O         2.392105         0.485597        -0.971237
 H        -0.532175        -0.976053         0.435723
 H        -0.663946         0.907067         0.428226
 H        -0.594980         0.043061        -1.075427
 H         2.204467        -1.829858         1.092278
 H         2.395176        -2.154714        -0.523554
 H         5.216711        -0.911291         0.137127
 H         5.026426         0.928083         0.415986
 H         2.593949        -0.653839         2.983667
 H         3.208631         0.953848         3.130129
 H         2.467201         1.677423         0.905289
