19
Iteration:  3311
 C        -0.093573         0.150760         0.021799
 C         1.434167        -0.080075         0.196276
 C         2.251332        -1.376230         0.079662
 C         3.215122        -0.177851         0.025039
 C         4.689097        -0.014850         0.533985
 O         4.431700         0.062789         2.018017
 C         2.963391         0.015197         2.347305
 C         2.391016         0.471884         1.144928
 O         2.341605         0.444842        -0.966216
 H        -0.537835         0.324348         1.032400
 H        -0.282076         1.102492        -0.664297
 H        -0.542551        -0.627629        -0.575169
 H         2.421512        -1.981388         0.962512
 H         2.160689        -1.964184        -0.798817
 H         5.206630        -1.012494         0.330941
 H         5.120903         0.836640         0.088172
 H         2.744993        -1.003267         2.748418
 H         3.078683         0.639691         3.212890
 H         2.473965         1.536680         1.197535
