19
Iteration:   546charge 0 multiplicity 1
 C        -0.198116         0.085509        -0.166669
 C         1.343869        -0.080341         0.085835
 C         2.197248        -1.374232         0.011889
 C         3.253817        -0.193426         0.103308
 C         4.678110        -0.176004         0.582339
 O         4.496229         0.270149         1.965819
 C         3.195741        -0.012366         2.453817
 C         2.332100         0.375305         1.284838
 O         2.349598         0.581435        -0.869054
 H        -0.754325        -0.593308         0.454734
 H        -0.604992         1.158482        -0.084393
 H        -0.383568        -0.210805        -1.246605
 H         2.171342        -2.131944         0.815064
 H         2.110632        -1.882206        -0.980556
 H         5.133214        -1.099495         0.312230
 H         5.238226         0.501373         0.094831
 H         3.113680        -1.059083         2.643773
 H         3.029708         0.540513         3.404065
 H         2.209201         1.509770         1.331889
