19
Iteration:  4880charge 0 multiplicity 1
 C        -0.038792         0.108760        -0.074961
 C         1.455362        -0.122310         0.102772
 C         2.280658        -1.346380        -0.164666
 C         3.164277        -0.033429         0.108280
 C         4.524938         0.045005         0.590132
 O         4.497554         0.022589         1.985722
 C         3.120581        -0.260997         2.405058
 C         2.274545         0.426382         1.276469
 O         2.280084         0.670493        -0.803151
 H        -0.004125         1.102423         0.075097
 H        -0.223413        -0.095930        -1.115439
 H        -0.526470        -0.604128         0.578323
 H         2.363273        -2.117722         0.682045
 H         2.435361        -1.760344        -1.128263
 H         4.876119        -0.841483         0.142428
 H         5.083471         0.903910         0.215958
 H         3.051594        -1.373985         2.509829
 H         3.174718         0.255839         3.334374
 H         2.367606         1.485817         1.426511
