19
Iteration:  4956
 C        -0.113687         0.046684        -0.043525
 C         1.381182        -0.071875         0.121420
 C         2.427348        -1.266056        -0.028687
 C         3.185173        -0.004133         0.065715
 C         4.642666         0.155437         0.547988
 O         4.451326        -0.246287         1.942988
 C         2.994270        -0.215241         2.418966
 C         2.320493         0.396370         1.216663
 O         2.307724         0.727219        -0.848511
 H        -0.306872         0.911033        -0.692250
 H        -0.344109        -0.937005        -0.520054
 H        -0.387941         0.265166         1.034640
 H         2.614544        -2.063667         0.719822
 H         2.170385        -1.721952        -0.977954
 H         5.283874        -0.619801         0.084485
 H         5.097974         1.249461         0.377710
 H         2.742555        -1.236232         2.682535
 H         2.976545         0.347216         3.350140
 H         2.380412         1.456649         1.399336
