19
Iteration:  4795charge 0 multiplicity 1
 C        -0.107897         0.054902        -0.056484
 C         1.308534        -0.178335         0.259470
 C         2.344198        -1.325486        -0.059184
 C         3.197199         0.036786         0.083076
 C         4.626125         0.053825         0.564195
 O         4.476430        -0.181055         1.996834
 C         3.069660        -0.144442         2.393094
 C         2.394390         0.495068         1.190258
 O         2.335134         0.730296        -0.901021
 H        -0.793786         0.540815         0.643151
 H        -0.236759         0.456846        -1.077881
 H        -0.603061        -0.912778         0.007860
 H         2.605587        -2.206059         0.636036
 H         2.390754        -1.775118        -1.030012
 H         5.133806        -0.832896         0.071586
 H         5.128713         0.953063         0.310647
 H         2.674203        -1.199003         2.593237
 H         2.971827         0.504135         3.325845
 H         2.184882         1.619879         1.052494
