19
Iteration:  3177charge 0 multiplicity 1
 C         0.023112         0.053129         0.069203
 C         1.430460        -0.118882         0.071815
 C         2.260200        -1.369895         0.077083
 C         3.238126        -0.119201         0.098143
 C         4.675150        -0.022978         0.577821
 O         4.455404        -0.252547         2.031889
 C         2.989227         0.208597         2.353353
 C         2.347597         0.684918         1.167296
 O         2.241757         0.480024        -1.024941
 H        -0.481940        -0.784850         0.625390
 H        -0.257215         1.105371         0.329103
 H        -0.475550        -0.045149        -0.992469
 H         2.293908        -2.046383         0.908303
 H         2.126626        -2.018681        -0.837672
 H         5.294604        -0.816280         0.016370
 H         4.980360         1.026012         0.500729
 H         2.715944        -0.682508         2.845151
 H         3.111110         0.928045         3.115655
 H         2.395375         1.737507         0.952877
