19
Iteration:  3193charge 0 multiplicity 1
 C        -0.153409        -0.003705        -0.003431
 C         1.390081        -0.043085         0.061108
 C         2.309295        -1.326646         0.180119
 C         3.225253        -0.109537         0.093678
 C         4.602692        -0.027200         0.518215
 O         4.453752        -0.258567         1.982731
 C         3.073788         0.155040         2.457803
 C         2.387223         0.629316         1.086036
 O         2.356349         0.523915        -1.004049
 H        -0.475985        -0.841960         0.583858
 H        -0.551092         0.874891         0.550203
 H        -0.518416         0.053799        -0.975239
 H         2.207255        -1.951592         1.158978
 H         2.474206        -2.058648        -0.647237
 H         5.335896        -0.870139         0.297430
 H         5.071508         0.966691         0.216201
 H         2.390233        -0.643443         2.909135
 H         3.107473         1.026968         3.185315
 H         2.405974         1.739936         0.885926
