19
Iteration:  3472
 C        -0.168345         0.096552        -0.004142
 C         1.333025        -0.048699         0.077485
 C         2.339573        -1.397221         0.097340
 C         3.186295        -0.150385         0.109137
 C         4.604714        -0.053577         0.606347
 O         4.502733        -0.210435         2.049978
 C         3.125150         0.259221         2.359323
 C         2.367112         0.635399         1.125800
 O         2.337913         0.389635        -1.019545
 H        -0.560822        -0.839152         0.334557
 H        -0.593858         0.862940         0.700730
 H        -0.483312         0.317920        -0.968115
 H         2.185828        -2.128960         0.941839
 H         2.473631        -1.942122        -0.872428
 H         5.296649        -0.791261         0.211453
 H         4.954943         1.028090         0.360121
 H         2.618332        -0.552433         2.975696
 H         3.138648         1.200646         2.987460
 H         2.496957         1.708655         0.936787
