19
Iteration:  1293
 C        -0.201385        -0.015508        -0.082373
 C         1.318839        -0.121273         0.077967
 C         2.241547        -1.376719         0.085503
 C         3.179210        -0.075952         0.114892
 C         4.615902        -0.087504         0.578528
 O         4.523309        -0.045760         2.007744
 C         3.127460         0.091083         2.418169
 C         2.374841         0.529707         1.223855
 O         2.456338         0.606395        -1.000724
 H        -0.797407        -0.606124         0.719230
 H        -0.585729         0.968039         0.003808
 H        -0.531797        -0.257979        -1.102767
 H         2.231282        -1.825860         1.074238
 H         2.144035        -1.983170        -0.816708
 H         5.140292        -1.021381         0.188351
 H         5.175613         0.738735         0.151709
 H         2.685373        -0.793293         2.696657
 H         3.156570         0.743518         3.276073
 H         2.264689         1.583278         1.249935
