19
Iteration:  3409
 C        -0.166011         0.139193        -0.214209
 C         1.364648        -0.116947         0.068000
 C         2.265576        -1.330634         0.205439
 C         3.124853        -0.123341         0.163568
 C         4.702103        -0.022711         0.451894
 O         4.515986        -0.009790         1.963045
 C         3.118106         0.071353         2.464924
 C         2.403529         0.591598         1.265958
 O         2.297310         0.309916        -0.956798
 H        -0.807189        -0.701859         0.166452
 H        -0.540335         1.131151         0.433640
 H        -0.269768         0.533461        -1.232087
 H         1.837710        -1.871786         1.045356
 H         2.508842        -1.891824        -0.647693
 H         5.255577        -0.972163         0.250236
 H         5.173291         0.917956         0.262822
 H         2.790898        -0.879757         2.790950
 H         3.220909         0.615903         3.413258
 H         2.489974         1.645915         1.100521
