19
Iteration:  3087
 C        -0.145237         0.106124        -0.225675
 C         1.375495        -0.117452         0.260078
 C         2.208890        -1.358340         0.178359
 C         3.160370        -0.153905         0.098197
 C         4.626664        -0.082654         0.565258
 O         4.575096        -0.070901         1.982459
 C         3.132544         0.052673         2.339150
 C         2.384442         0.555869         1.199080
 O         2.298959         0.569322        -0.924084
 H        -0.898014         0.198035         0.649721
 H        -0.064049         0.948954        -0.905109
 H        -0.538159        -0.917891        -0.733791
 H         2.463163        -1.947843         1.029743
 H         2.094365        -1.832440        -0.741719
 H         5.293875        -0.860164         0.133203
 H         4.965087         0.969300         0.220362
 H         2.796719        -0.963200         2.638208
 H         2.826634         0.567196         3.238962
 H         2.585617         1.674482         1.120717
