19
Iteration:   466
 C        -0.038212         0.052434        -0.046968
 C         1.403095        -0.162339         0.061007
 C         2.327067        -1.355583        -0.037601
 C         3.205976        -0.112481         0.097213
 C         4.621053         0.145110         0.648299
 O         4.395169        -0.310960         1.995723
 C         3.170023         0.194367         2.458431
 C         2.298105         0.591757         1.176792
 O         2.273982         0.465632        -0.995737
 H        -0.422455        -0.367868         0.996884
 H        -0.162173         1.091745        -0.001853
 H        -0.643275        -0.407592        -0.787758
 H         2.412116        -2.005027         0.874221
 H         2.363853        -1.972892        -0.961714
 H         5.387309        -0.552909         0.255837
 H         4.699219         1.180454         0.616058
 H         2.669475        -0.555116         3.148425
 H         3.399042         1.045638         3.007449
 H         2.167856         1.654509         1.112035
