19
Iteration:  1993charge 0 multiplicity 1
 C        -0.123106         0.050731        -0.032759
 C         1.408376        -0.106519         0.136850
 C         2.374711        -1.303468         0.201528
 C         3.178447         0.042250         0.137259
 C         4.635665         0.054374         0.543354
 O         4.415624        -0.262216         1.861861
 C         3.010804         0.063640         2.416505
 C         2.335098         0.605852         1.194155
 O         2.375355         0.399736        -1.031662
 H        -0.525901         0.199520         0.969201
 H        -0.262634         0.973977        -0.557127
 H        -0.496277        -0.846832        -0.510637
 H         2.436013        -1.972336         1.055053
 H         2.428233        -1.785671        -0.764862
 H         5.368393        -0.585531         0.193807
 H         4.989452         1.051791         0.242019
 H         2.524550        -0.815030         2.966426
 H         3.050709         0.836270         3.205297
 H         2.415913         1.688414         1.299020
