19
Iteration:  1497
 C        -0.053350         0.075248        -0.131278
 C         1.380821        -0.078032         0.115949
 C         2.350339        -1.318755         0.162050
 C         3.182471        -0.028079         0.149419
 C         4.689254         0.138016         0.582614
 O         4.427811        -0.358568         1.984565
 C         3.111640         0.120782         2.359420
 C         2.335875         0.667201         1.173543
 O         2.216717         0.354292        -0.952345
 H        -0.659944        -0.321291         0.613234
 H        -0.428929         1.161953        -0.273705
 H        -0.323905        -0.590023        -1.007312
 H         2.342839        -1.970697         1.012914
 H         2.391775        -1.882318        -0.763164
 H         5.358885        -0.466072        -0.003625
 H         5.101233         1.186805         0.665662
 H         2.597300        -0.711718         2.784411
 H         3.393257         0.835034         3.092328
 H         2.370821         1.733660         0.977254
