19
Iteration:  1321
 C        -0.018304         0.116501        -0.143641
 C         1.387814        -0.113686         0.140309
 C         2.290885        -1.380491        -0.000385
 C         3.182876        -0.183807         0.140495
 C         4.594477        -0.087442         0.494394
 O         4.505818         0.101171         2.000360
 C         3.154944         0.037751         2.463365
 C         2.282638         0.458931         1.281239
 O         2.276180         0.487706        -0.905532
 H        -0.757716         0.074740         0.574415
 H        -0.122343         1.257611        -0.454947
 H        -0.297009        -0.329586        -1.112405
 H         2.210887        -2.088552         0.840429
 H         2.141067        -1.740944        -1.031989
 H         5.170572        -0.957685         0.264866
 H         5.073663         0.815115         0.034078
 H         2.771374        -1.065050         2.779969
 H         3.057102         0.684387         3.372204
 H         2.164067         1.592300         1.265850
