19
Iteration:  2482charge 0 multiplicity 1
 C        -0.029014         0.073357        -0.119708
 C         1.363143        -0.113692         0.108547
 C         2.140991        -1.331535         0.197125
 C         3.142008        -0.165984         0.084344
 C         4.632930        -0.074763         0.527086
 O         4.514147         0.015859         1.965102
 C         3.102687         0.008277         2.408114
 C         2.281288         0.537737         1.218681
 O         2.426264         0.525773        -0.970111
 H        -0.515243        -0.389102         0.788918
 H        -0.168828         1.119826        -0.075979
 H        -0.274772        -0.467585        -1.110888
 H         2.207032        -1.881991         1.145020
 H         2.033311        -1.941266        -0.687920
 H         5.070084        -0.997922         0.061854
 H         5.104512         0.901127         0.215473
 H         2.879486        -0.855628         2.937247
 H         3.021742         0.836369         3.247296
 H         2.415128         1.647933         1.019291
