19
Iteration:  2817charge 0 multiplicity 1
 C        -0.077066         0.049991        -0.019872
 C         1.421822        -0.057235         0.165221
 C         2.261069        -1.302953         0.088865
 C         3.153440        -0.103497         0.100329
 C         4.611830        -0.004582         0.498731
 O         4.411770        -0.152379         1.928063
 C         3.044910         0.096634         2.451029
 C         2.325712         0.590001         1.221191
 O         2.424380         0.436847        -0.969421
 H        -0.471795        -0.526162         0.881739
 H        -0.330382         1.074268        -0.068509
 H        -0.223305        -0.359853        -1.093575
 H         2.299029        -2.106869         0.951143
 H         2.207564        -1.739602        -0.934209
 H         5.254424        -0.928485         0.226318
 H         5.268138         0.846686         0.270049
 H         2.720751        -0.839622         2.845204
 H         3.070934         0.979678         3.101604
 H         2.348865         1.662366         0.968713
