19
Iteration:   213charge 0 multiplicity 1
 C        -0.083734        -0.005598        -0.083479
 C         1.409701        -0.095125         0.182108
 C         2.264137        -1.329315         0.112275
 C         3.209231        -0.039507         0.042888
 C         4.692092         0.150956         0.616549
 O         4.422624        -0.317088         1.976731
 C         3.121949         0.114652         2.412145
 C         2.361286         0.635559         1.158113
 O         2.256768         0.431416        -1.002808
 H        -0.544967        -0.299132         0.785077
 H        -0.232147         1.086340        -0.374212
 H        -0.388615        -0.635065        -0.958051
 H         2.469196        -2.203918         0.892114
 H         2.050526        -1.812401        -0.855473
 H         5.488669        -0.578298         0.244355
 H         4.827003         1.198379         0.573424
 H         2.592062        -0.705899         3.001317
 H         3.206057         0.997013         3.102847
 H         2.388915         1.770608         1.267795
