19
Iteration:  1685charge 0 multiplicity 1
 C        -0.059706         0.042349        -0.094154
 C         1.409372        -0.093655         0.184607
 C         2.346387        -1.394470         0.161314
 C         3.162715        -0.038278         0.086199
 C         4.560164        -0.012283         0.437607
 O         4.398893        -0.081635         2.029823
 C         3.045868         0.016981         2.368541
 C         2.381611         0.658181         1.209558
 O         2.390920         0.453023        -0.969041
 H        -0.632255        -0.662057         0.607861
 H        -0.172211         1.046345         0.376174
 H        -0.243226        -0.162299        -1.166196
 H         2.294600        -2.113281         0.965573
 H         2.179984        -1.865967        -0.788420
 H         5.145149        -0.925738         0.162075
 H         5.085818         0.858851         0.041443
 H         2.643781        -0.894540         2.639498
 H         2.960569         0.707022         3.218551
 H         2.369976         1.761255         1.279716
