19
Iteration:  1102charge 0 multiplicity 1
 C        -0.087780         0.132772         0.001518
 C         1.384298        -0.097120         0.009306
 C         2.207781        -1.362095        -0.070474
 C         3.200896        -0.271735         0.106891
 C         4.598912        -0.168140         0.619314
 O         4.503507         0.232154         2.086588
 C         3.093311         0.036984         2.420665
 C         2.410301         0.408857         1.177875
 O         2.315288         0.541655        -0.955334
 H        -0.461284        -0.615363         0.582949
 H        -0.255879         1.165455         0.463296
 H        -0.477210         0.082816        -0.994751
 H         2.080763        -2.276185         0.609207
 H         2.163207        -1.962913        -1.012864
 H         5.238767        -1.022483         0.367869
 H         5.069503         0.721870         0.176951
 H         2.907673        -0.963989         2.613977
 H         2.964367         0.629037         3.307179
 H         2.403280         1.553280         1.159330
