19
Iteration:  2840charge 0 multiplicity 1
 C        -0.141021         0.051685         0.077522
 C         1.431531        -0.113684         0.006257
 C         2.279622        -1.357838         0.085577
 C         3.219202        -0.140376        -0.020968
 C         4.606112         0.011927         0.638907
 O         4.463749        -0.217045         2.071645
 C         3.052336         0.116218         2.417855
 C         2.415855         0.584406         1.143426
 O         2.315048         0.546194        -1.053045
 H        -0.282185         0.011933         1.196532
 H        -0.241755         1.056570        -0.283337
 H        -0.665939        -0.673849        -0.648691
 H         2.155945        -1.967205         1.068539
 H         2.165016        -2.010426        -0.810931
 H         5.429213        -0.648255         0.244555
 H         5.008072         1.050552         0.440959
 H         2.527352        -0.745701         2.733651
 H         3.110734         0.972041         3.090337
 H         2.395350         1.690032         1.034967
