19
Iteration:  1899
 C        -0.102867         0.191484        -0.047610
 C         1.369649        -0.091373         0.144937
 C         2.243291        -1.423132         0.068853
 C         3.237507        -0.219313         0.066907
 C         4.686970        -0.184624         0.526167
 O         4.441727         0.299073         2.013910
 C         3.048245        -0.009053         2.393645
 C         2.383542         0.462500         1.173504
 O         2.321717         0.490806        -0.928120
 H        -0.696677        -0.637136         0.232085
 H        -0.622951         0.921504         0.707937
 H        -0.399962         0.298544        -1.145765
 H         2.487576        -2.215979         0.831379
 H         2.247577        -1.954271        -0.926905
 H         5.073679        -1.281208         0.304628
 H         5.489710         0.453493         0.149405
 H         2.863321        -1.057614         2.586285
 H         2.967450         0.426483         3.400589
 H         2.403583         1.543004         1.124653
