19
Iteration:  2021charge 0 multiplicity 1
 C        -0.080221        -0.049496         0.142511
 C         1.449227        -0.123392         0.117240
 C         2.300533        -1.350581         0.073114
 C         3.222903        -0.039609         0.025406
 C         4.620689         0.054245         0.658014
 O         4.391467        -0.350487         1.969741
 C         2.973160         0.188448         2.370389
 C         2.398551         0.638451         1.085298
 O         2.377996         0.536891        -1.063673
 H        -0.396777         0.138525         1.238585
 H        -0.343751         0.882744        -0.453109
 H        -0.567885        -0.932368        -0.324206
 H         2.451531        -1.892363         1.050926
 H         2.132898        -2.062935        -0.752891
 H         5.553424        -0.487471         0.249062
 H         4.790188         1.166520         0.478428
 H         2.337326        -0.536642         2.805850
 H         3.060715         0.997218         3.141695
 H         2.479616         1.753462         0.948124
