19
Iteration:  4959
 C        -0.139587         0.052111        -0.050774
 C         1.382473        -0.101225         0.109611
 C         2.443178        -1.249439        -0.005270
 C         3.198306        -0.000040         0.074048
 C         4.649284         0.158095         0.536366
 O         4.423639        -0.260493         1.943188
 C         3.008732        -0.190257         2.393580
 C         2.320592         0.391600         1.218272
 O         2.314929         0.713213        -0.839087
 H        -0.468992         0.892097        -0.579018
 H        -0.452221        -0.852614        -0.492440
 H        -0.396074         0.317719         0.935656
 H         2.652548        -2.051586         0.733223
 H         2.262845        -1.661003        -1.102328
 H         5.311973        -0.521964         0.049342
 H         5.055744         1.159011         0.448268
 H         2.750140        -1.245279         2.688990
 H         3.047557         0.313344         3.440479
 H         2.484695         1.514709         1.454027
