19
Iteration:   803charge 0 multiplicity 1
 C        -0.041959         0.219233        -0.075877
 C         1.436577        -0.115336         0.032193
 C         2.247250        -1.412273        -0.010523
 C         3.207960        -0.223336         0.118195
 C         4.580195        -0.026915         0.502042
 O         4.449718         0.216690         2.048949
 C         3.192927        -0.101945         2.441279
 C         2.287261         0.393554         1.271623
 O         2.287256         0.512933        -0.925356
 H        -0.618225        -0.234356         0.869809
 H        -0.125578         1.220317        -0.185177
 H        -0.460529        -0.234890        -0.963421
 H         2.239342        -2.143963         0.823878
 H         2.294470        -1.950963        -1.013069
 H         5.184004        -0.830498         0.280914
 H         5.077591         0.759910        -0.046251
 H         3.014657        -1.199002         2.823339
 H         2.915775         0.542425         3.353102
 H         2.189189         1.446918         1.286733
