19
Iteration:   503charge 0 multiplicity 1
 C        -0.059097         0.060445        -0.129907
 C         1.385828        -0.049308         0.170089
 C         2.312875        -1.343982         0.128814
 C         3.202232        -0.144651         0.077495
 C         4.663421        -0.010076         0.496902
 O         4.456515         0.015094         1.937715
 C         3.025206        -0.066330         2.371175
 C         2.299299         0.576214         1.254745
 O         2.330567         0.462898        -0.886871
 H        -0.604126        -0.565885         0.522943
 H        -0.451531         1.112338         0.113302
 H        -0.203138        -0.143360        -1.236321
 H         2.300222        -1.929622         1.045436
 H         2.224516        -1.899253        -0.823627
 H         5.406108        -0.754993         0.336002
 H         5.128148         0.886507         0.181263
 H         2.728969        -1.041802         2.669057
 H         3.019386         0.562083         3.317937
 H         2.325352         1.696448         1.181653
