19
Iteration:  4918
 C        -0.173355         0.015439        -0.111394
 C         1.372455        -0.027755         0.122226
 C         2.320271        -1.267995        -0.164195
 C         3.198915        -0.072517         0.152914
 C         4.626323         0.087828         0.573484
 O         4.563889        -0.080363         1.990637
 C         3.079049        -0.278235         2.423827
 C         2.353375         0.468756         1.263703
 O         2.309380         0.677632        -0.809692
 H        -0.648673         0.973384        -0.595848
 H        -0.615519        -0.811363        -0.705993
 H        -0.848302         0.009644         0.776574
 H         2.456545        -2.090633         0.521589
 H         2.262547        -1.572796        -1.267486
 H         5.229397        -0.812918         0.264075
 H         5.180030         0.970443         0.256022
 H         2.854284        -1.349983         2.621559
 H         2.914334         0.247218         3.426065
 H         2.349553         1.619489         1.241807
