19
Iteration:  4292charge 0 multiplicity 1
 C        -0.154473         0.042772        -0.085311
 C         1.427013        -0.092516         0.103249
 C         2.223745        -1.330280        -0.071200
 C         3.196731        -0.121286         0.116448
 C         4.652046        -0.008754         0.540577
 O         4.477693        -0.002475         1.980067
 C         3.020668        -0.199881         2.402523
 C         2.300120         0.426327         1.198880
 O         2.443538         0.754950        -0.795063
 H        -0.357828         1.077612         0.051111
 H        -0.480041        -0.198525        -1.059292
 H        -0.676057        -0.602852         0.644406
 H         2.397550        -2.076523         0.783398
 H         2.405524        -1.642745        -1.070860
 H         5.252515        -0.867724         0.134072
 H         4.935793         1.023110         0.214223
 H         2.934907        -1.246206         2.510545
 H         3.099358         0.313035         3.364313
 H         2.186029         1.431791         1.562145
