19
Iteration:  4180charge 0 multiplicity 1
 C        -0.122075         0.030855        -0.082563
 C         1.420896        -0.096387         0.072467
 C         2.340422        -1.283896         0.015362
 C         3.252301        -0.069624         0.114416
 C         4.594767         0.113553         0.604701
 O         4.463537        -0.290375         1.995757
 C         3.058523        -0.097319         2.368236
 C         2.344448         0.569826         1.239797
 O         2.292038         0.629657        -0.919682
 H        -0.714057        -0.242410         0.827407
 H        -0.337881         1.095134        -0.307649
 H        -0.552242        -0.535165        -0.837829
 H         2.307875        -1.885998         0.942255
 H         2.395032        -1.962780        -0.932458
 H         5.420934        -0.517499         0.105311
 H         4.821481         1.182859         0.709618
 H         2.693455        -1.049361         2.650336
 H         3.228384         0.687550         3.212440
 H         2.401817         1.627702         0.977389
