19
Iteration:  3620charge 0 multiplicity 1
 C        -0.125872         0.161884        -0.061599
 C         1.410078        -0.088228        -0.023708
 C         2.203298        -1.419275         0.136901
 C         3.181760        -0.154945         0.105923
 C         4.607108        -0.102355         0.559964
 O         4.562201         0.109360         2.008693
 C         3.077239         0.003108         2.431336
 C         2.338723         0.522943         1.202432
 O         2.337022         0.485310        -0.936043
 H        -0.422433         1.107066         0.534450
 H        -0.598242         0.272386        -1.056528
 H        -0.667432        -0.883904         0.317445
 H         2.377073        -2.077120         0.929157
 H         2.151842        -2.032184        -0.800154
 H         5.223689        -1.057427         0.285118
 H         5.186471         0.881155         0.149367
 H         3.020060        -1.040071         2.529888
 H         2.964455         0.518981         3.390967
 H         2.495998         1.563346         0.897050
