19
Iteration:  4573charge 0 multiplicity 1
 C        -0.188375         0.119417        -0.084446
 C         1.346214        -0.092600         0.115353
 C         2.261774        -1.370964        -0.138565
 C         3.207146        -0.107773         0.184995
 C         4.674619         0.035311         0.569055
 O         4.521196         0.032946         2.019705
 C         3.094165        -0.277978         2.379984
 C         2.379596         0.468579         1.311296
 O         2.325605         0.689912        -0.870507
 H        -0.532378         1.161759        -0.316987
 H        -0.501293        -0.472231        -0.955407
 H        -0.754842        -0.391536         0.726049
 H         2.311854        -2.299144         0.457505
 H         2.219188        -1.633812        -1.249741
 H         5.379837        -0.724198         0.167797
 H         5.101787         1.065546         0.481698
 H         3.009479        -1.344973         2.371509
 H         2.888736         0.108221         3.322238
 H         2.454530         1.524974         1.118833
