19
Iteration:  3303charge 0 multiplicity 1
 C        -0.052432         0.174920         0.024382
 C         1.398599        -0.063930         0.144951
 C         2.259411        -1.423598         0.034519
 C         3.240059        -0.181465         0.093120
 C         4.655191        -0.022314         0.517508
 O         4.397411         0.037001         1.950279
 C         3.021804        -0.000900         2.405048
 C         2.383197         0.548816         1.182978
 O         2.352549         0.415441        -0.927994
 H        -0.715946         0.265816         0.892371
 H        -0.248392         1.045251        -0.518259
 H        -0.377169        -0.720670        -0.501472
 H         2.343944        -2.019158         1.035422
 H         2.045419        -1.945482        -0.891206
 H         5.503185        -0.788089         0.384971
 H         5.123552         0.897327         0.019571
 H         2.732618        -0.928973         2.662220
 H         2.827449         0.739447         3.231776
 H         2.322128         1.672715         1.050033
