19
Iteration:  4635
 C        -0.157573         0.122155        -0.060388
 C         1.402134        -0.120104         0.094069
 C         2.345529        -1.325429        -0.148154
 C         3.179775        -0.050747         0.172473
 C         4.741910         0.006357         0.563513
 O         4.496633        -0.068299         2.045273
 C         3.067169        -0.213064         2.340394
 C         2.328155         0.475069         1.229343
 O         2.257262         0.680360        -0.802429
 H        -0.405007         0.914530        -0.828126
 H        -0.460008        -0.895534        -0.387062
 H        -0.704922         0.335215         0.834122
 H         2.285206        -2.160021         0.551835
 H         2.495500        -1.456376        -1.306752
 H         5.344404        -0.694913        -0.011964
 H         5.051385         0.994608         0.362049
 H         2.765553        -1.358062         2.401011
 H         2.857420         0.093998         3.393203
 H         2.249654         1.547023         1.373482
