19
Iteration:  4829charge 0 multiplicity 1
 C        -0.058177         0.110801        -0.035858
 C         1.430807        -0.101392         0.027555
 C         2.221403        -1.362161        -0.079836
 C         3.173572        -0.117625         0.141691
 C         4.591885         0.071141         0.562173
 O         4.549265        -0.042985         2.041953
 C         3.087401        -0.208006         2.431172
 C         2.301475         0.413925         1.232699
 O         2.289026         0.725575        -0.929555
 H        -0.369677         0.731222         0.863913
 H        -0.444471         0.483482        -0.996300
 H        -0.258600        -0.948757         0.009602
 H         2.274957        -1.991967         0.788442
 H         2.363553        -1.884796        -1.050325
 H         5.286392        -0.753264         0.167615
 H         4.927068         1.037706         0.209138
 H         3.039707        -1.291782         2.576745
 H         2.940398         0.299657         3.448870
 H         2.271677         1.562728         1.381960
