19
Iteration:  2082charge 0 multiplicity 1
 C        -0.096811         0.006524        -0.066386
 C         1.405123        -0.103454         0.131948
 C         2.335994        -1.327826         0.156616
 C         3.162617        -0.010212         0.115041
 C         4.625968        -0.068886         0.483582
 O         4.418536        -0.167968         1.984644
 C         3.077798         0.138074         2.385784
 C         2.342193         0.602441         1.200262
 O         2.361042         0.494276        -0.997876
 H        -0.653294        -0.729165         0.468037
 H        -0.488147         0.996716         0.288783
 H        -0.325889        -0.371685        -1.092122
 H         2.430039        -1.804283         1.112748
 H         2.176867        -1.984480        -0.694552
 H         5.228896        -0.959356         0.280389
 H         5.300946         0.820054         0.279201
 H         2.707204        -0.778928         3.028392
 H         3.170319         0.943628         3.123572
 H         2.170607         1.643497         1.083062
