19
Iteration:   348
 C        -0.074509         0.237025        -0.159555
 C         1.364866        -0.159022         0.143231
 C         2.285304        -1.479879         0.041617
 C         3.231549        -0.232073         0.140510
 C         4.651733         0.090227         0.521596
 O         4.495976         0.048278         1.959127
 C         3.055597         0.065913         2.467138
 C         2.346810         0.422272         1.245699
 O         2.263439         0.438091        -0.904436
 H        -0.825042        -0.335346         0.547145
 H        -0.111420         1.194120         0.158531
 H        -0.416993         0.182434        -1.140397
 H         2.231658        -2.376845         0.725047
 H         2.439035        -1.781184        -1.068003
 H         5.356260        -0.710685         0.203126
 H         4.866568         1.146801         0.209809
 H         2.938224        -0.944175         3.010029
 H         3.116968         0.896177         3.178119
 H         2.341452         1.445842         1.054693
