19
Iteration:  1933
 C        -0.086645         0.072524        -0.165587
 C         1.364648        -0.074321         0.076300
 C         2.112558        -1.413846         0.047317
 C         3.125290        -0.169745         0.183094
 C         4.575792        -0.082051         0.468430
 O         4.569113         0.099269         2.028870
 C         3.169954         0.085348         2.503681
 C         2.320776         0.476522         1.281960
 O         2.397750         0.495873        -0.956704
 H        -0.444587        -0.778652         0.396033
 H        -0.538941         1.116239         0.054487
 H        -0.335993        -0.063642        -1.256109
 H         2.091250        -2.197140         0.864833
 H         2.200869        -1.808814        -1.003078
 H         5.208504        -1.025150         0.224946
 H         4.941737         0.866314         0.031470
 H         3.157594        -0.899484         2.847339
 H         3.360417         0.785365         3.297963
 H         2.327285         1.591669         1.202932
