19
Iteration:  1115
 C        -0.100315         0.078282        -0.001403
 C         1.386013        -0.134176         0.172353
 C         2.163551        -1.448959        -0.067379
 C         3.181218        -0.158179         0.080760
 C         4.641011        -0.132630         0.582871
 O         4.482460         0.156838         1.989796
 C         3.058643         0.015117         2.444596
 C         2.340150         0.507078         1.158033
 O         2.454392         0.583897        -0.928332
 H        -0.655009        -0.529276         0.591595
 H        -0.527059         1.111167         0.189258
 H        -0.353093        -0.169296        -0.990171
 H         2.226954        -2.025439         0.867283
 H         2.171707        -1.787697        -1.119305
 H         5.060593        -1.157179         0.579817
 H         5.272568         0.602907         0.048316
 H         2.891175        -1.011970         2.713877
 H         2.845421         0.633249         3.326647
 H         2.463844         1.609888         0.925587
