19
Iteration:  1540charge 0 multiplicity 1
 C        -0.008923         0.066492        -0.014976
 C         1.462240        -0.092792         0.113905
 C         2.285567        -1.370224         0.065677
 C         3.169026        -0.158492         0.053664
 C         4.523677        -0.053758         0.551324
 O         4.429037        -0.049858         2.011566
 C         3.033934         0.043255         2.418578
 C         2.367411         0.540189         1.116079
 O         2.391571         0.548000        -0.934169
 H        -0.361934         0.129681         1.002531
 H        -0.443400         1.108248        -0.395400
 H        -0.486575        -0.890947        -0.458039
 H         2.315943        -2.061890         0.902118
 H         2.301909        -1.813541        -0.939442
 H         5.233661        -0.834626         0.387122
 H         4.818197         0.990188         0.130589
 H         2.780240        -0.891185         2.824167
 H         2.820295         0.792021         3.153192
 H         2.325650         1.642354         1.054628
