19
Iteration:  1306charge 0 multiplicity 1
 C        -0.153314         0.123055        -0.175579
 C         1.320757        -0.214157         0.147384
 C         2.196548        -1.404086         0.047581
 C         3.138123        -0.018512         0.091147
 C         4.632447        -0.066225         0.546998
 O         4.577138         0.026515         1.984143
 C         3.106181         0.014061         2.511142
 C         2.322210         0.519534         1.224950
 O         2.404264         0.552056        -0.961975
 H        -0.610232        -0.477849         0.744358
 H        -0.309411         1.122586        -0.138583
 H        -0.474458        -0.497660        -0.994173
 H         2.263649        -2.204154         0.819942
 H         2.369148        -1.964178        -0.870064
 H         5.015935        -1.113752         0.330811
 H         5.332259         0.736874         0.226276
 H         3.034816        -0.944210         3.053856
 H         3.061598         0.872368         3.192730
 H         2.285460         1.613841         1.108025
