19
Iteration:   938
 C        -0.104121         0.011959         0.119034
 C         1.432940        -0.074437         0.132838
 C         2.422082        -1.325397         0.106838
 C         3.240612        -0.012780         0.071455
 C         4.655372         0.168797         0.620089
 O         4.327291        -0.450650         1.916981
 C         2.997492         0.099211         2.389336
 C         2.380618         0.687841         1.098446
 O         2.312047         0.482658        -1.065600
 H        -0.546596        -0.390681         1.007256
 H        -0.555758         1.067006        -0.149306
 H        -0.392392        -0.692663        -0.737442
 H         2.156266        -2.043550         0.952264
 H         2.660207        -1.946770        -0.768066
 H         5.489722        -0.447354         0.242882
 H         5.049878         1.221757         0.681408
 H         2.507105        -0.863138         2.895053
 H         3.146937         0.937619         3.077773
 H         2.377356         1.809611         1.261460
