19
Iteration:  2985
 C        -0.105650         0.146785        -0.023859
 C         1.381848        -0.136861         0.124619
 C         2.261506        -1.373371         0.122257
 C         3.167486        -0.094153         0.074405
 C         4.625009        -0.069871         0.567479
 O         4.499389        -0.037690         2.002332
 C         3.070421         0.041841         2.426305
 C         2.343762         0.632140         1.127495
 O         2.383175         0.395461        -1.025958
 H        -0.640854        -0.727917         0.373464
 H        -0.334325         1.131526         0.638931
 H        -0.478734         0.452209        -0.964765
 H         2.300743        -1.960071         1.034528
 H         2.131559        -2.033508        -0.770850
 H         5.100335        -0.925293         0.248440
 H         5.158545         0.859625         0.213609
 H         2.538022        -0.931196         2.645621
 H         3.168326         0.747750         3.322610
 H         2.432122         1.737686         1.159662
