19
Iteration:  3816
 C        -0.111564        -0.025818        -0.048068
 C         1.385435        -0.023522         0.122378
 C         2.289306        -1.316081         0.009166
 C         3.202521        -0.052726         0.056895
 C         4.589670         0.031231         0.578291
 O         4.437650        -0.315700         2.009874
 C         3.092634         0.098761         2.446332
 C         2.367615         0.550097         1.224047
 O         2.384057         0.621430        -1.016788
 H        -0.555644        -0.976983        -0.377924
 H        -0.473147        -0.110882         0.965582
 H        -0.714541         0.806079        -0.511648
 H         2.404715        -2.036461         0.847400
 H         2.312782        -1.864721        -0.986756
 H         5.301627        -0.660047         0.089218
 H         5.020656         0.992524         0.405010
 H         2.650206        -0.895808         2.972934
 H         3.199534         0.895802         3.280920
 H         2.346722         1.651870         1.304680
