19
Iteration:  2128
 C        -0.131937         0.168558        -0.283485
 C         1.283259        -0.113336         0.207394
 C         2.129763        -1.444393         0.190433
 C         3.215086        -0.180701         0.086153
 C         4.631221         0.075406         0.575570
 O         4.595686         0.035862         1.955376
 C         3.175476         0.034139         2.450029
 C         2.403170         0.550204         1.227499
 O         2.296219         0.364971        -0.925719
 H        -0.874579        -0.513005        -0.077032
 H        -0.447913         1.120242         0.237671
 H        -0.151473         0.059399        -1.354552
 H         2.051679        -2.209039         0.953428
 H         2.327069        -1.924170        -0.740132
 H         5.516802        -0.545420         0.143054
 H         4.799471         1.101133         0.162891
 H         2.833890        -1.033479         2.749469
 H         3.153256         0.678719         3.392973
 H         2.476152         1.607743         1.171896
