19
Iteration:   895charge 0 multiplicity 1
 C        -0.184689         0.001928        -0.002721
 C         1.395606        -0.096467         0.134565
 C         2.326362        -1.355376         0.000032
 C         3.228083        -0.043313         0.082567
 C         4.627955        -0.057940         0.577017
 O         4.479003        -0.077193         1.988725
 C         3.016776         0.045035         2.425366
 C         2.362937         0.542760         1.189592
 O         2.377198         0.570618        -0.967166
 H        -0.759125        -0.676539         0.576745
 H        -0.710024         1.106416         0.150406
 H        -0.528409        -0.188420        -1.087933
 H         2.582228        -2.022683         0.850821
 H         2.148618        -2.068250        -0.788882
 H         5.288743        -0.831743         0.144432
 H         5.265008         0.778373         0.230459
 H         2.669724        -1.003440         2.837267
 H         3.222726         0.727824         3.239967
 H         2.273307         1.685354         1.177088
