19
Iteration:  4953
 C        -0.078371         0.038664        -0.031833
 C         1.388455        -0.045239         0.134456
 C         2.399668        -1.292825        -0.058416
 C         3.185931        -0.000967         0.058628
 C         4.631882         0.156558         0.557349
 O         4.478326        -0.231415         1.944666
 C         2.988585        -0.242713         2.437908
 C         2.321507         0.412107         1.230822
 O         2.297626         0.738866        -0.860586
 H        -0.179013         0.923467        -0.798421
 H        -0.322213        -0.967463        -0.507576
 H        -0.445983         0.169403         1.044437
 H         2.542842        -2.039595         0.715865
 H         2.147578        -1.807179        -0.928267
 H         5.269691        -0.685226         0.128426
 H         5.066870         1.191975         0.350975
 H         2.724753        -1.268338         2.668276
 H         2.904989         0.421508         3.265213
 H         2.247033         1.477264         1.322565
