19
Iteration:  1861charge 0 multiplicity 1
 C        -0.091256         0.193639         0.016333
 C         1.418915        -0.118446         0.028379
 C         2.259101        -1.456298         0.052928
 C         3.170200        -0.169696         0.091672
 C         4.657614        -0.096123         0.523923
 O         4.486567         0.165051         2.043196
 C         3.079795         0.012997         2.421834
 C         2.332424         0.504223         1.176760
 O         2.326778         0.458890        -0.988944
 H        -0.462553        -0.773495         0.527878
 H        -0.234071         1.068169         0.553944
 H        -0.509238         0.458387        -0.921306
 H         2.164356        -2.098490         0.927694
 H         2.222932        -2.062879        -0.847275
 H         5.217309        -1.134092         0.470710
 H         5.267722         0.786001         0.191107
 H         2.798698        -1.128008         2.709202
 H         2.765316         0.687646         3.289695
 H         2.261975         1.613958         1.036900
