19
Iteration:  2863
 C        -0.124222         0.139760         0.059344
 C         1.395470        -0.097574         0.173657
 C         2.367534        -1.373737         0.059942
 C         3.308294        -0.121161         0.098923
 C         4.721600         0.033859         0.635766
 O         4.371980        -0.250231         1.994387
 C         2.986114         0.100532         2.360143
 C         2.386688         0.631714         1.074699
 O         2.249470         0.456679        -1.019330
 H        -0.431260         0.270126         1.115049
 H        -0.415352         1.003730        -0.589705
 H        -0.422366        -0.827753        -0.416379
 H         2.363565        -2.154028         0.890586
 H         2.372379        -1.852016        -0.952500
 H         5.445791        -0.617203         0.177093
 H         5.125975         1.092941         0.384389
 H         2.472032        -0.757569         2.615902
 H         3.104579         0.877460         3.101418
 H         2.364922         1.728526         1.074694
