19
Iteration:  1702
 C        -0.050911         0.059996         0.016994
 C         1.443011        -0.101623         0.126475
 C         2.351743        -1.286407         0.117007
 C         3.233221        -0.020939         0.065749
 C         4.634925        -0.053228         0.578889
 O         4.426328        -0.162676         1.932813
 C         2.952672         0.078929         2.467992
 C         2.308918         0.609803         1.197933
 O         2.306109         0.444350        -1.059124
 H        -0.496345        -0.508240         0.808579
 H        -0.398760         1.102807         0.017807
 H        -0.288283        -0.461618        -0.944563
 H         2.548576        -1.851661         1.048211
 H         2.522151        -1.832725        -0.830403
 H         5.139552        -0.931955         0.182796
 H         5.189367         0.928961         0.396959
 H         2.659691        -0.997676         2.854636
 H         3.116225         0.777172         3.287889
 H         2.227048         1.665156         0.894019
