19
Iteration:  3820
 C        -0.140105        -0.054603        -0.037911
 C         1.356102        -0.010549         0.105109
 C         2.272297        -1.301071         0.009579
 C         3.211193        -0.022405         0.032718
 C         4.587104         0.045005         0.586317
 O         4.462589        -0.310821         2.013433
 C         3.064064         0.077779         2.436348
 C         2.390869         0.537447         1.210375
 O         2.399787         0.596503        -1.010231
 H        -0.531214        -0.994571        -0.339364
 H        -0.552200        -0.045411         1.016351
 H        -0.540929         0.893278        -0.552136
 H         2.348961        -1.993311         0.842955
 H         2.270127        -1.851086        -0.860911
 H         5.266209        -0.675317         0.096283
 H         5.118413         1.023139         0.599059
 H         2.736570        -0.770825         2.965441
 H         3.208821         0.781769         3.204277
 H         2.405463         1.636819         1.411027
