19
Iteration:   602charge 0 multiplicity 1
 C        -0.180270         0.153566        -0.019921
 C         1.327934        -0.190083         0.127839
 C         2.255933        -1.400096        -0.008714
 C         3.236078        -0.133898         0.066826
 C         4.681469        -0.061910         0.600718
 O         4.474538         0.232275         1.989019
 C         3.067428        -0.111418         2.414419
 C         2.382008         0.436675         1.194270
 O         2.349735         0.500063        -0.946769
 H        -0.726479        -0.036039         0.818539
 H        -0.118058         1.356588        -0.022632
 H        -0.551556        -0.294356        -0.994962
 H         2.286823        -2.139590         0.821856
 H         2.353941        -1.862447        -0.999516
 H         5.076047        -1.064744         0.393967
 H         5.188386         0.797053         0.262596
 H         2.960536        -1.122382         2.703052
 H         2.919721         0.601285         3.354083
 H         2.599459         1.575820         1.034117
