19
Iteration:   785charge 0 multiplicity 1
 C        -0.105200         0.157035        -0.032963
 C         1.333074        -0.191872         0.199012
 C         2.283681        -1.431829        -0.009568
 C         3.215628        -0.118347         0.029803
 C         4.659258         0.011483         0.603143
 O         4.525158         0.094499         1.964453
 C         2.945343        -0.045307         2.429186
 C         2.382575         0.443572         1.159974
 O         2.332337         0.532861        -0.934307
 H        -0.610973        -0.207888         0.926129
 H        -0.098497         1.301047        -0.093872
 H        -0.546567        -0.320789        -0.968919
 H         2.336302        -2.027506         0.912951
 H         2.294236        -1.864086        -0.975951
 H         5.337243        -0.903050         0.313478
 H         5.229326         0.933536         0.251223
 H         2.693901        -1.076550         2.757664
 H         3.017048         0.527716         3.295756
 H         2.479391         1.543388         1.107248
