19
Iteration:  2416charge 0 multiplicity 1
 C        -0.035904         0.211288        -0.100205
 C         1.364078        -0.165165         0.145254
 C         2.270182        -1.450380         0.139070
 C         3.165362        -0.194956         0.105599
 C         4.631103        -0.043463         0.483065
 O         4.460400         0.124034         1.890409
 C         3.049708        -0.017010         2.447530
 C         2.287637         0.447870         1.230719
 O         2.413998         0.489527        -0.947721
 H        -0.588072         0.355862         0.861043
 H        -0.005496         1.167477        -0.537706
 H        -0.759455        -0.252484        -0.759021
 H         2.267361        -1.890406         1.109969
 H         2.092012        -2.120355        -0.703959
 H         5.280291        -0.899369         0.430315
 H         5.083806         0.879401         0.208255
 H         2.835479        -0.958395         2.859098
 H         3.172990         0.713475         3.319674
 H         2.271972         1.565193         1.263032
