19
Iteration:  3512charge 0 multiplicity 1
 C        -0.055108         0.040090        -0.068137
 C         1.484132        -0.069373         0.191275
 C         2.344747        -1.315457         0.197002
 C         3.210994        -0.095073         0.113696
 C         4.578863        -0.063222         0.519091
 O         4.336871        -0.275930         1.933344
 C         3.048294         0.215100         2.385875
 C         2.409873         0.732924         1.093560
 O         2.290409         0.429782        -0.933436
 H        -0.409012        -0.713757         0.683743
 H        -0.547995         0.958284         0.072952
 H        -0.372200        -0.559466        -0.974620
 H         2.454847        -1.827021         1.105388
 H         2.371811        -1.847024        -0.790349
 H         5.168570        -0.925667         0.292548
 H         5.117115         0.786528         0.229779
 H         2.560204        -0.638652         2.858383
 H         3.270408         0.982810         3.080838
 H         2.508506         1.814948         0.806219
