19
Iteration:  1203
 C        -0.012287         0.074682        -0.088213
 C         1.392769        -0.187331         0.119639
 C         2.275125        -1.409672         0.060821
 C         3.200058        -0.034135         0.107748
 C         4.521069         0.113464         0.560335
 O         4.389366        -0.328154         1.940100
 C         3.143125         0.206294         2.467484
 C         2.351629         0.542485         1.220815
 O         2.344040         0.485787        -0.963274
 H        -0.262588        -0.047524         0.887865
 H        -0.130878         1.141822        -0.414751
 H        -0.450850        -0.617086        -0.788679
 H         2.425771        -2.062325         0.905331
 H         2.264568        -1.809798        -0.955249
 H         5.404334        -0.390141         0.231894
 H         4.724228         1.190604         0.527047
 H         2.774544        -0.513180         3.042568
 H         3.248369         1.117524         3.064278
 H         2.231273         1.619798         1.037136
