19
Iteration:   634charge 0 multiplicity 1
 C        -0.007465         0.035653        -0.021964
 C         1.498251        -0.040168         0.120029
 C         2.159635        -1.359616         0.121661
 C         3.170415        -0.116347         0.106769
 C         4.612106         0.057137         0.519390
 O         4.459384         0.023307         1.974370
 C         3.036077        -0.081013         2.391550
 C         2.325130         0.551422         1.211445
 O         2.351985         0.447603        -0.998735
 H        -0.413693        -0.429296         0.790853
 H        -0.302192         1.179853        -0.079450
 H        -0.387911        -0.481774        -0.963318
 H         2.091835        -2.089205         0.946471
 H         2.206017        -1.876891        -0.840163
 H         5.307926        -0.770968         0.178963
 H         5.030168         1.010501         0.462326
 H         2.744147        -1.089519         2.627581
 H         3.094998         0.606720         3.333426
 H         2.541486         1.680447         1.096686
