19
Iteration:  3289
 C        -0.050501         0.128016        -0.056479
 C         1.435460        -0.119945         0.117085
 C         2.223466        -1.425530         0.108916
 C         3.150919        -0.211524         0.131807
 C         4.574183         0.023680         0.524220
 O         4.491007        -0.015646         1.987399
 C         3.086127         0.054742         2.433240
 C         2.344795         0.602040         1.154675
 O         2.348931         0.447787        -0.960405
 H        -0.325581         0.152554         1.014064
 H        -0.209935         1.199610        -0.549397
 H        -0.612983        -0.523097        -0.697549
 H         2.025079        -2.250684         0.768994
 H         2.362449        -1.766677        -0.901721
 H         5.273910        -0.807272         0.148587
 H         4.822357         1.024849         0.271259
 H         2.778998        -0.959979         2.701240
 H         3.203002         0.588714         3.388385
 H         2.495926         1.644681         1.016273
