19
Iteration:  3415
 C        -0.168377         0.180371        -0.205233
 C         1.322464        -0.121398         0.092492
 C         2.298271        -1.378710         0.234640
 C         3.143452        -0.110011         0.130297
 C         4.664208        -0.008424         0.499859
 O         4.508535        -0.041499         1.962397
 C         3.138718         0.074793         2.477591
 C         2.369652         0.631752         1.241200
 O         2.315748         0.324323        -0.979017
 H        -0.770534        -0.681989         0.012961
 H        -0.364272         0.921038         0.455405
 H        -0.439550         0.462392        -1.232214
 H         1.992041        -1.927956         1.152931
 H         2.406509        -2.036223        -0.716072
 H         5.290597        -0.861179         0.287180
 H         5.213994         0.928374         0.074841
 H         2.894802        -1.050152         2.716308
 H         3.251289         0.618383         3.431015
 H         2.539897         1.715630         0.986295
