19
Iteration:  1410
 C        -0.099570         0.060714        -0.003265
 C         1.432548        -0.098364         0.158592
 C         2.316490        -1.395663         0.059336
 C         3.241963        -0.173500         0.008444
 C         4.694952        -0.110781         0.663384
 O         4.480444         0.017378         2.000615
 C         3.010608         0.046799         2.409602
 C         2.378661         0.509210         1.095907
 O         2.206065         0.604789        -0.982802
 H        -0.537227        -0.512386         0.690293
 H        -0.328399         1.171192        -0.001258
 H        -0.337486        -0.277880        -1.036289
 H         2.263584        -2.017142         0.923394
 H         2.150169        -1.879436        -0.902639
 H         5.341950        -0.952089         0.428341
 H         5.285350         0.776208         0.427651
 H         2.579351        -0.939098         2.906954
 H         2.966481         0.859407         3.136511
 H         2.348168         1.596454         0.988667
