19
Iteration:  1776charge 0 multiplicity 1
 C        -0.118564        -0.018326        -0.090827
 C         1.403792        -0.173834         0.140126
 C         2.389198        -1.341038         0.227431
 C         3.149790         0.041281         0.118125
 C         4.584618         0.028786         0.519489
 O         4.426699        -0.338622         1.884324
 C         3.041462         0.141484         2.443611
 C         2.378046         0.636567         1.179359
 O         2.381629         0.551233        -0.992375
 H        -0.779997         0.337507         0.835401
 H        -0.209967         0.845419        -0.740394
 H        -0.594672        -0.934887        -0.506821
 H         2.352259        -1.753333         1.245600
 H         2.501884        -1.915708        -0.705022
 H         5.283869        -0.819730         0.125645
 H         5.070509         0.993750         0.585672
 H         2.588731        -0.713522         2.899345
 H         3.279921         0.968424         3.116381
 H         2.061092         1.640270         0.972116
