19
Iteration:  3079charge 0 multiplicity 1
 C        -0.101024         0.085264        -0.199900
 C         1.373993        -0.102764         0.220304
 C         2.226154        -1.415925         0.149547
 C         3.137786        -0.102882         0.140078
 C         4.660367        -0.097051         0.519363
 O         4.527968        -0.038333         1.994813
 C         3.148290         0.033733         2.339401
 C         2.368299         0.555060         1.186538
 O         2.292480         0.582198        -0.878188
 H        -0.811739         0.287512         0.647366
 H        -0.137862         0.925208        -0.843780
 H        -0.555788        -0.687676        -0.891528
 H         2.200212        -2.112950         1.013030
 H         2.029654        -2.048907        -0.757038
 H         5.360629        -1.028924         0.200086
 H         5.129635         0.911036         0.269644
 H         2.780852        -0.897860         2.665863
 H         3.211998         0.729178         3.170424
 H         2.326160         1.597097         0.956055
