19
Iteration:  1929charge 0 multiplicity 1
 C        -0.052967         0.074576        -0.145535
 C         1.364970        -0.088549         0.048457
 C         2.098557        -1.408640         0.056246
 C         3.123648        -0.186445         0.201214
 C         4.556321        -0.111029         0.497602
 O         4.559225         0.136870         2.027686
 C         3.179124         0.074964         2.446946
 C         2.337300         0.474094         1.291679
 O         2.404482         0.522256        -0.977085
 H        -0.536928        -0.752160         0.392866
 H        -0.554030         1.011867         0.178119
 H        -0.366618         0.005935        -1.210892
 H         2.104646        -2.184368         0.793019
 H         2.251406        -1.883775        -0.906675
 H         5.161182        -1.003851         0.114960
 H         4.956615         0.829236         0.116583
 H         3.103303        -0.954020         2.968150
 H         3.339847         0.758624         3.296337
 H         2.265897         1.523609         1.243795
