19
Iteration:  4958charge 0 multiplicity 1
 C        -0.133164         0.051041        -0.049401
 C         1.381402        -0.092078         0.113241
 C         2.439691        -1.252483        -0.010486
 C         3.192376        -0.002405         0.071217
 C         4.648349         0.156618         0.539825
 O         4.432325        -0.255988         1.943078
 C         3.003075        -0.197420         2.400951
 C         2.320290         0.390495         1.215621
 O         2.312970         0.717961        -0.841682
 H        -0.413405         0.885731        -0.603809
 H        -0.405350        -0.875612        -0.502370
 H        -0.382919         0.306840         0.964744
 H         2.645345        -2.060641         0.730421
 H         2.222272        -1.682842        -1.071483
 H         5.296875        -0.549019         0.061880
 H         5.075749         1.198118         0.422087
 H         2.748553        -1.242366         2.689956
 H         3.026484         0.323235         3.422963
 H         2.458419         1.498423         1.443546
