19
Iteration:  2106charge 0 multiplicity 1
 C        -0.056601         0.054516        -0.228011
 C         1.415026        -0.026619         0.146905
 C         2.196495        -1.396296         0.217959
 C         3.165578        -0.162730         0.149028
 C         4.554454         0.078370         0.457352
 O         4.551245        -0.086345         1.973979
 C         3.119134         0.060611         2.449242
 C         2.370958         0.582185         1.193748
 O         2.315660         0.437098        -0.915985
 H        -0.675275        -0.714229         0.046402
 H        -0.469532         0.966137         0.295830
 H        -0.161831        -0.088373        -1.292326
 H         2.074972        -1.922458         1.151981
 H         2.032695        -2.040020        -0.634598
 H         5.356223        -0.692425         0.226137
 H         4.874987         1.044052         0.060834
 H         2.653258        -0.912273         2.850754
 H         3.315941         0.692740         3.345042
 H         2.376627         1.610388         0.942617
