19
Iteration:   246
 C        -0.115809        -0.047799        -0.095944
 C         1.369824        -0.090230         0.043699
 C         2.384831        -1.357582        -0.002172
 C         3.184619        -0.113587         0.065066
 C         4.602681        -0.149228         0.504665
 O         4.428711        -0.052592         1.992079
 C         3.097759         0.164806         2.490288
 C         2.346398         0.514080         1.255116
 O         2.315097         0.621888        -0.875498
 H        -0.401055        -0.176611         0.913895
 H        -0.437483         1.059921        -0.314216
 H        -0.584035        -0.752376        -0.835712
 H         2.427761        -2.117371         0.944134
 H         2.323579        -1.750206        -1.033858
 H         5.190771        -1.150122         0.345187
 H         5.342022         0.476744         0.027704
 H         2.837641        -0.698138         3.227387
 H         3.118482         1.114823         3.070064
 H         2.260067         1.680134         1.213628
