19
Iteration:   798
 C        -0.037808         0.193642        -0.037717
 C         1.419763        -0.134435         0.056713
 C         2.275042        -1.398049        -0.009560
 C         3.171590        -0.183636         0.110582
 C         4.628737        -0.030271         0.502000
 O         4.456745         0.181814         2.030727
 C         3.129738        -0.084903         2.467414
 C         2.313067         0.374189         1.239253
 O         2.291543         0.517182        -0.935230
 H        -0.647692        -0.095775         0.733973
 H        -0.225061         1.363986        -0.166750
 H        -0.459925        -0.268620        -0.958800
 H         2.254980        -2.143896         0.784220
 H         2.216146        -1.989593        -0.906311
 H         5.328669        -0.952589         0.329604
 H         5.063144         0.904285         0.053819
 H         3.090746        -1.098581         2.740044
 H         2.778954         0.572593         3.243101
 H         2.251283         1.527876         1.230099
