19
Iteration:  4051charge 0 multiplicity 1
 C        -0.076853         0.160111        -0.065014
 C         1.405716        -0.158057         0.119388
 C         2.342317        -1.408390         0.118512
 C         3.162480        -0.066136         0.132057
 C         4.637785         0.029652         0.531908
 O         4.448399        -0.095337         1.962187
 C         3.025300        -0.072233         2.355163
 C         2.339016         0.510587         1.204297
 O         2.321274         0.609444        -0.971135
 H        -0.443412        -0.319606        -1.057402
 H        -0.592871        -0.362305         0.828240
 H        -0.039290         1.215219         0.088550
 H         2.209092        -1.913537         1.047808
 H         2.472476        -2.160422        -0.709474
 H         5.301016        -0.800115         0.189338
 H         5.249558         0.887539         0.281365
 H         2.721239        -1.022577         2.849054
 H         3.035117         0.532818         3.228467
 H         2.165863         1.611233         1.189099
