19
Iteration:  2406
 C        -0.127740         0.167544        -0.040464
 C         1.418706        -0.116924         0.114277
 C         2.276563        -1.415180         0.132240
 C         3.201832        -0.200179         0.114712
 C         4.588066        -0.095436         0.498134
 O         4.430508         0.117396         1.974063
 C         3.066884        -0.019085         2.386222
 C         2.331038         0.523105         1.184755
 O         2.417552         0.499483        -0.947573
 H        -0.501063         0.199663         0.963624
 H        -0.021540         1.150543        -0.270200
 H        -0.541525        -0.521761        -0.741839
 H         2.161817        -2.073473         0.994030
 H         2.300344        -2.041298        -0.782135
 H         5.227746        -0.996263         0.263732
 H         5.012198         0.676372        -0.070963
 H         2.851679        -0.998441         2.802876
 H         2.890988         0.790936         3.210981
 H         2.412067         1.658191         1.079101
