19
Iteration:  2028charge 0 multiplicity 1
 C         0.010541        -0.053926         0.156087
 C         1.408737        -0.108177         0.094351
 C         2.308346        -1.324418         0.093665
 C         3.237055        -0.074650        -0.009887
 C         4.634257         0.047972         0.658674
 O         4.367022        -0.335143         1.972540
 C         2.952431         0.200945         2.411447
 C         2.448822         0.623504         1.085247
 O         2.318378         0.557776        -1.076335
 H        -0.358904        -0.002263         1.109757
 H        -0.506653         0.800819        -0.417805
 H        -0.620959        -0.850792        -0.313207
 H         2.323929        -1.960664         0.963113
 H         2.215442        -1.954750        -0.804237
 H         5.509947        -0.632628         0.452282
 H         4.845505         1.092068         0.622815
 H         2.527313        -0.773779         2.915071
 H         3.031093         1.165702         2.930250
 H         2.490454         1.649139         0.871081
