19
Iteration:  4068
 C        -0.100773         0.103112        -0.083700
 C         1.400285        -0.118363         0.191657
 C         2.351281        -1.303515         0.060188
 C         3.213771        -0.042812         0.040778
 C         4.624682        -0.002426         0.539119
 O         4.446369        -0.158188         1.967333
 C         3.049329        -0.033202         2.416022
 C         2.334708         0.572187         1.213616
 O         2.309963         0.501273        -0.890014
 H        -0.361090        -0.585914        -0.846665
 H        -0.720930         0.034707         0.804676
 H        -0.290191         1.081486        -0.599411
 H         2.597564        -2.074753         0.861540
 H         2.260586        -1.570531        -0.982590
 H         5.301704        -0.817146         0.196412
 H         5.139693         0.971842         0.280898
 H         2.690664        -1.067517         2.582926
 H         2.849236         0.614006         3.358748
 H         2.376216         1.658450         1.131182
