19
Iteration:  3002
 C        -0.003514         0.168322         0.053143
 C         1.473147        -0.008081         0.100245
 C         2.246208        -1.361203         0.145618
 C         3.197030        -0.240935         0.053030
 C         4.558965        -0.061692         0.551499
 O         4.436303         0.005084         2.038020
 C         3.030669         0.004928         2.389486
 C         2.421672         0.590348         1.160376
 O         2.275613         0.424562        -1.068433
 H        -0.577760        -0.683527         0.470625
 H        -0.498271         0.886301         0.580251
 H        -0.259744         0.224972        -1.051561
 H         2.253174        -1.964730         1.086609
 H         2.345712        -1.871623        -0.828663
 H         5.407086        -0.871957         0.397671
 H         5.077170         0.846043         0.207660
 H         2.921126        -1.014345         2.645184
 H         2.856038         0.694436         3.227401
 H         2.417490         1.617602         0.860351
