19
Iteration:   169charge 0 multiplicity 1
 C        -0.048125         0.069744        -0.012842
 C         1.445257        -0.181002         0.175445
 C         2.344170        -1.398293         0.189319
 C         3.178972         0.027892         0.109935
 C         4.636310         0.114365         0.536817
 O         4.396624        -0.299289         1.902696
 C         3.023246         0.119784         2.367523
 C         2.272468         0.613752         1.150168
 O         2.374552         0.471456        -1.002331
 H        -0.518449        -0.511400         0.793673
 H        -0.307191         1.177122         0.028734
 H        -0.349441        -0.206389        -1.075326
 H         2.387816        -2.146636         1.083443
 H         2.364407        -1.998664        -0.740576
 H         5.265990        -0.730266         0.058773
 H         5.061835         1.116570         0.573236
 H         2.682452        -0.737766         3.018163
 H         3.203446         0.969980         3.072655
 H         2.067001         1.746060         1.131193
