19
Iteration:  1219
 C        -0.070307         0.083755         0.030190
 C         1.467016        -0.152215         0.024007
 C         2.410389        -1.376812         0.097533
 C         3.193005        -0.085299         0.095860
 C         4.638561         0.131071         0.573837
 O         4.363041        -0.339542         1.910989
 C         3.096263         0.185009         2.469161
 C         2.221515         0.585294         1.175839
 O         2.346320         0.478569        -0.989952
 H        -0.788840        -0.218155         0.950857
 H        -0.226839         1.177060        -0.129127
 H        -0.673312        -0.335000        -0.807546
 H         2.213079        -2.003994         1.004290
 H         2.532362        -2.079740        -0.736511
 H         5.302378        -0.646687         0.092168
 H         5.103154         1.157124         0.511141
 H         2.703003        -0.731416         3.208933
 H         3.267653         1.149162         3.056199
 H         2.165458         1.681941         1.060505
