19
Iteration:  3040charge 0 multiplicity 1
 C        -0.140516         0.157613        -0.017151
 C         1.339194        -0.096879         0.121077
 C         2.254038        -1.418653         0.044966
 C         3.169134        -0.193834         0.100788
 C         4.592236        -0.080857         0.568102
 O         4.532097         0.021392         2.030076
 C         3.163670         0.033418         2.420724
 C         2.298697         0.576967         1.133305
 O         2.393309         0.486088        -1.002159
 H        -0.642630        -0.374419         0.782883
 H        -0.292856         1.311912        -0.050050
 H        -0.424314        -0.351175        -0.911431
 H         2.155378        -2.114712         0.885811
 H         2.356287        -1.936054        -0.929362
 H         5.103559        -0.936585         0.328221
 H         5.057773         0.773854         0.106109
 H         2.717664        -0.865882         2.983159
 H         3.129619         0.790928         3.262196
 H         2.344626         1.687226         1.184283
