19
Iteration:  3692charge 0 multiplicity 1
 C        -0.138635         0.144713        -0.124160
 C         1.377179        -0.116608         0.041890
 C         2.316995        -1.362751         0.019324
 C         3.217166        -0.145612         0.174196
 C         4.731554        -0.088600         0.544250
 O         4.559320         0.002080         1.998120
 C         3.058697         0.037062         2.436324
 C         2.311918         0.505190         1.290301
 O         2.214646         0.519838        -0.963441
 H        -0.369846         0.964508        -0.837986
 H        -0.838449        -0.699223        -0.342414
 H        -0.542094         0.467519         0.782901
 H         2.132594        -2.096443         0.890178
 H         2.335464        -1.854690        -0.984498
 H         5.234199        -1.011297         0.523913
 H         5.349106         0.660199         0.172634
 H         2.834419        -1.068396         2.659337
 H         3.176560         0.843300         3.226873
 H         2.232619         1.602633         1.320634
