19
Iteration:  3838charge 0 multiplicity 1
 C        -0.118261        -0.005664        -0.011622
 C         1.388024        -0.084812         0.139876
 C         2.268484        -1.264120         0.087016
 C         3.240436        -0.035468         0.123743
 C         4.709701         0.080842         0.607316
 O         4.444811        -0.297547         1.982548
 C         3.080157        -0.053912         2.396278
 C         2.331390         0.630232         1.131279
 O         2.347547         0.586504        -1.009458
 H        -0.631476        -0.926105        -0.432121
 H        -0.736076         0.176614         0.856526
 H        -0.518762         0.747842        -0.754597
 H         2.160272        -1.939430         0.984481
 H         2.247124        -1.853185        -0.889423
 H         5.505207        -0.579471         0.180915
 H         5.049390         1.072532         0.325164
 H         2.539704        -1.102899         2.701027
 H         3.028621         0.687018         3.318196
 H         2.310056         1.723256         1.005610
