19
Iteration:  3115
 C        -0.065606         0.081491        -0.112872
 C         1.450901        -0.056217         0.061957
 C         2.173778        -1.371765         0.163901
 C         3.194875        -0.060339         0.187914
 C         4.642597         0.022935         0.477684
 O         4.434669        -0.123890         1.948505
 C         3.148911        -0.001340         2.435654
 C         2.329223         0.586938         1.252855
 O         2.327303         0.434154        -0.984341
 H        -0.455050         0.246015         0.848178
 H        -0.323046         1.033023        -0.679729
 H        -0.391224        -0.800057        -0.493091
 H         2.114666        -1.941150         1.134590
 H         2.158664        -1.801898        -0.888880
 H         5.298892        -0.728694        -0.055849
 H         5.087320         1.001105         0.344637
 H         2.711465        -0.979641         2.772300
 H         3.009842         0.766702         3.258520
 H         2.525748         1.651803         1.277746
