19
Iteration:   211
 C        -0.083123         0.001032        -0.077504
 C         1.415177        -0.077755         0.167132
 C         2.267218        -1.342591         0.134755
 C         3.216981        -0.029059         0.045723
 C         4.691891         0.161307         0.609010
 O         4.404378        -0.318681         1.965729
 C         3.116222         0.086994         2.423792
 C         2.372487         0.637754         1.165913
 O         2.259001         0.416448        -1.014411
 H        -0.581294        -0.310060         0.755237
 H        -0.292901         1.122993        -0.351646
 H        -0.403728        -0.653046        -0.966350
 H         2.509839        -2.150758         0.913477
 H         2.041937        -1.811768        -0.840407
 H         5.496616        -0.508308         0.234124
 H         4.818541         1.221760         0.609578
 H         2.620300        -0.689648         2.999904
 H         3.236251         1.007160         3.085702
 H         2.400900         1.779979         1.262129
