19
Iteration:  4485
 C        -0.032575        -0.026532        -0.061455
 C         1.467648        -0.047621         0.104297
 C         2.271670        -1.244966        -0.031246
 C         3.282524        -0.013262         0.010441
 C         4.652721         0.127967         0.608292
 O         4.432360        -0.339475         1.990001
 C         3.101040        -0.090722         2.473971
 C         2.342120         0.519446         1.191065
 O         2.179487         0.651318        -0.923314
 H        -0.568343         0.667995         0.706745
 H        -0.288415         0.294252        -1.102017
 H        -0.389499        -1.015331         0.162769
 H         2.246861        -1.780823         0.857834
 H         2.028692        -1.841212        -0.944844
 H         5.478619        -0.540141         0.258536
 H         4.964177         1.268848         0.654751
 H         2.647992        -1.047150         2.650771
 H         3.057223         0.551070         3.309752
 H         2.435022         1.595244         1.383046
