19
Iteration:  3845charge 0 multiplicity 1
 C        -0.092880         0.042909        -0.074741
 C         1.386645        -0.043654         0.155740
 C         2.309218        -1.333532         0.114621
 C         3.249255        -0.083914         0.125245
 C         4.680463         0.067731         0.570182
 O         4.429047        -0.284689         1.983904
 C         3.042711        -0.014973         2.360928
 C         2.332560         0.633555         1.169605
 O         2.307973         0.590837        -1.003719
 H        -0.493052        -1.025187        -0.227000
 H        -0.549562         0.167901         0.950215
 H        -0.456987         0.803923        -0.693989
 H         2.352563        -2.062254         0.926120
 H         2.349004        -1.899444        -0.876278
 H         5.459267        -0.597905         0.205578
 H         5.016572         1.199120         0.455306
 H         2.665811        -0.964479         2.502850
 H         3.104450         0.386731         3.339964
 H         2.288574         1.712679         1.223678
