19
Iteration:   797charge 0 multiplicity 1
 C        -0.034690         0.193117        -0.036962
 C         1.411246        -0.138367         0.064614
 C         2.279566        -1.398835        -0.010968
 C         3.166473        -0.174885         0.108119
 C         4.638022        -0.030989         0.504214
 O         4.461721         0.175971         2.024584
 C         3.113292        -0.079069         2.470856
 C         2.319297         0.374247         1.231632
 O         2.293912         0.518213        -0.936386
 H        -0.684738        -0.094227         0.771183
 H        -0.230712         1.353330        -0.155390
 H        -0.466094        -0.279691        -0.971296
 H         2.255606        -2.138649         0.797991
 H         2.207142        -1.982032        -0.896287
 H         5.336857        -0.959266         0.348618
 H         5.056112         0.926079         0.087331
 H         3.092451        -1.116705         2.732927
 H         2.775625         0.573886         3.229748
 H         2.274903         1.509888         1.220414
