19
Iteration:  2055charge 0 multiplicity 1
 C        -0.067504        -0.040633         0.073377
 C         1.407859        -0.118991         0.077518
 C         2.385955        -1.329062         0.004228
 C         3.216111        -0.025634         0.102624
 C         4.679143        -0.092217         0.622149
 O         4.412782        -0.281818         2.028708
 C         2.982027         0.238755         2.378631
 C         2.411003         0.698819         1.138649
 O         2.239263         0.511315        -1.039223
 H        -0.562250        -0.435496         1.094538
 H        -0.438920         0.980246        -0.041449
 H        -0.571632        -0.692342        -0.649969
 H         2.562482        -2.027153         0.889549
 H         2.266123        -1.876708        -0.966838
 H         5.361480        -0.927691         0.368213
 H         5.227314         0.939353         0.480007
 H         2.519009        -0.644529         2.761447
 H         3.118137         1.054266         3.128067
 H         2.333229         1.818148         0.886046
