19
Iteration:  3508
 C        -0.072662         0.043534        -0.061888
 C         1.503839        -0.073448         0.175897
 C         2.341607        -1.360187         0.188232
 C         3.205754        -0.069271         0.064196
 C         4.594103        -0.078119         0.532516
 O         4.323253        -0.261964         1.940358
 C         3.071449         0.229147         2.377863
 C         2.401654         0.714405         1.132721
 O         2.282913         0.440943        -0.951006
 H        -0.376131        -0.789504         0.647664
 H        -0.571861         1.044062         0.168589
 H        -0.417317        -0.495779        -1.022701
 H         2.368043        -1.866841         1.189064
 H         2.395367        -1.912523        -0.711366
 H         5.230039        -1.022266         0.320123
 H         5.239281         0.856053         0.260709
 H         2.554192        -0.569763         2.853296
 H         3.208943         1.079972         3.102605
 H         2.541470         1.772597         0.996435
