19
Iteration:  3374charge 0 multiplicity 1
 C        -0.060346         0.052264        -0.108022
 C         1.356960        -0.133874         0.224518
 C         2.163482        -1.401856         0.102195
 C         3.177149        -0.249025         0.012412
 C         4.539593        -0.150065         0.526075
 O         4.470405         0.090844         1.978923
 C         3.157439         0.123494         2.409606
 C         2.408016         0.558412         1.242467
 O         2.400426         0.570342        -0.935083
 H        -0.804778        -0.506089         0.459688
 H        -0.375758         1.195796        -0.083269
 H        -0.088100        -0.316009        -1.133547
 H         2.229337        -1.897546         1.054329
 H         2.157568        -2.091088        -0.773641
 H         5.122423        -1.011062         0.266393
 H         5.195857         0.708109         0.262955
 H         2.600092        -0.786002         2.611872
 H         3.072384         0.783463         3.266734
 H         2.477835         1.591814         1.011418
