19
Iteration:  3555
 C        -0.130057         0.070037        -0.088816
 C         1.366910        -0.036237         0.021800
 C         2.259617        -1.315275         0.258312
 C         3.167622        -0.107029         0.113392
 C         4.623671         0.036185         0.544690
 O         4.444821        -0.221287         1.945101
 C         3.174427         0.109311         2.483122
 C         2.356782         0.559002         1.114804
 O         2.341648         0.423750        -0.998817
 H        -0.599041         0.396455         0.897958
 H        -0.172022         0.853135        -0.826902
 H        -0.571331        -0.976797        -0.396455
 H         2.315602        -1.765723         1.193864
 H         2.224033        -2.036330        -0.598779
 H         5.362945        -0.643056         0.076166
 H         5.014944         1.082885         0.462316
 H         2.750407        -0.707063         2.918555
 H         3.235181         0.932589         3.142077
 H         2.451538         1.660365         1.169229
