19
Iteration:  1649
 C        -0.151089         0.101210        -0.220344
 C         1.427106        -0.071336         0.041008
 C         2.125731        -1.386199         0.090104
 C         3.198777        -0.194157         0.103925
 C         4.644761        -0.005296         0.509763
 O         4.556621         0.083699         2.064872
 C         3.190088         0.002933         2.517052
 C         2.415876         0.461586         1.280955
 O         2.245522         0.450881        -0.958664
 H        -0.670304        -0.710196         0.124669
 H        -0.604944         1.061002         0.204756
 H        -0.425293         0.325800        -1.276600
 H         2.123198        -2.067753         0.951121
 H         2.120024        -1.882687        -0.895544
 H         5.329894        -0.744911         0.270984
 H         4.971735         1.039261         0.183586
 H         3.026463        -0.950902         3.034396
 H         3.009922         0.765069         3.233982
 H         2.498121         1.542831         1.155745
