19
Iteration:  2714
 C        -0.138660         0.202718         0.005036
 C         1.446285        -0.084917         0.137465
 C         2.241629        -1.365755         0.029532
 C         3.230916        -0.169076         0.024449
 C         4.646221        -0.062465         0.536040
 O         4.438805         0.121877         2.068606
 C         3.084865        -0.029845         2.472760
 C         2.438786         0.461363         1.169890
 O         2.273440         0.413549        -1.073440
 H        -0.758451        -0.510330         0.463603
 H        -0.222436         1.182783         0.646539
 H        -0.277355         0.267671        -1.014117
 H         2.194889        -1.869631         0.969829
 H         2.139158        -1.979503        -0.899325
 H         5.002259        -1.072788         0.528263
 H         5.332378         0.688668         0.248943
 H         2.781813        -1.002281         2.837541
 H         2.915375         0.599944         3.377584
 H         2.520972         1.543804         0.962773
