19
Iteration:  1768charge 0 multiplicity 1
 C        -0.027397        -0.033020        -0.032166
 C         1.391933        -0.157183         0.154536
 C         2.357032        -1.306388         0.156376
 C         3.173535         0.039897         0.113070
 C         4.609554         0.040875         0.567405
 O         4.394510        -0.373657         1.888095
 C         3.065300         0.203058         2.433753
 C         2.264927         0.628660         1.177522
 O         2.396977         0.518369        -1.008195
 H        -0.506031         0.245651         0.862905
 H        -0.167410         0.759467        -0.832160
 H        -0.526313        -0.928082        -0.464062
 H         2.306208        -1.896313         1.120376
 H         2.288618        -1.945510        -0.743308
 H         5.155022        -0.691035         0.060541
 H         4.973783         1.043814         0.313697
 H         2.707513        -0.792983         2.946241
 H         3.192404         1.010235         3.152984
 H         2.319187         1.717446         1.206591
