19
Iteration:  2777
 C        -0.091624         0.075032        -0.245316
 C         1.389387        -0.046071         0.148740
 C         2.213386        -1.290449         0.194032
 C         3.200585        -0.108065         0.058580
 C         4.638100        -0.050437         0.546107
 O         4.547900        -0.060280         2.000157
 C         3.164802         0.035684         2.449433
 C         2.403430         0.498249         1.228495
 O         2.180918         0.460783        -0.962220
 H        -0.711994        -0.793708        -0.015536
 H        -0.641568         0.972565         0.129012
 H        -0.306508         0.319866        -1.297401
 H         2.182708        -1.811134         1.111776
 H         2.062827        -2.024467        -0.573120
 H         5.210638        -0.904289         0.238304
 H         5.292292         0.832126         0.171553
 H         2.889607        -0.996810         3.032547
 H         3.287902         0.861682         3.198281
 H         2.480657         1.604745         1.388929
