19
Iteration:   302charge 0 multiplicity 1
 C        -0.049856         0.187997        -0.061247
 C         1.373375        -0.056608         0.114332
 C         2.193959        -1.416845         0.065598
 C         3.201520        -0.176912         0.109389
 C         4.697266        -0.026837         0.574831
 O         4.412847         0.291479         1.942386
 C         3.093743        -0.166845         2.406510
 C         2.398344         0.421493         1.210286
 O         2.322754         0.431530        -0.937064
 H        -0.792388        -0.557313         0.357455
 H        -0.398547         1.197095         0.159439
 H        -0.153927         0.029282        -1.129867
 H         2.113250        -2.078341         1.039997
 H         1.991935        -2.038671        -0.868940
 H         5.318213        -1.003772         0.589342
 H         5.137454         0.850569         0.114409
 H         3.132542        -1.281766         2.698967
 H         2.991426         0.449382         3.276735
 H         2.414685         1.527593         1.192315
