19
Iteration:  4530
 C        -0.078949         0.070121        -0.058163
 C         1.396589        -0.111115         0.093715
 C         2.352478        -1.401189        -0.027573
 C         3.183110        -0.052093         0.108477
 C         4.655193         0.044511         0.524139
 O         4.453098        -0.118538         1.930273
 C         3.017184        -0.156971         2.413823
 C         2.323923         0.474355         1.250264
 O         2.328347         0.730108        -0.804058
 H        -0.474497         0.972198         0.526521
 H        -0.310905         0.417912        -1.079486
 H        -0.593213        -0.861653         0.272375
 H         2.243259        -2.116841         0.742758
 H         2.616779        -1.864637        -0.993615
 H         5.209030        -0.869344         0.135187
 H         5.048730         1.087602         0.133735
 H         2.775982        -1.192670         2.549365
 H         3.129435         0.467310         3.275248
 H         2.083286         1.605575         1.319333
