19
Iteration:  4169
 C        -0.122583         0.044759        -0.109871
 C         1.372388        -0.086553         0.079805
 C         2.380395        -1.286700         0.104810
 C         3.210898        -0.059143         0.098245
 C         4.676601         0.121860         0.619240
 O         4.456656        -0.332439         1.962964
 C         3.046637        -0.053893         2.442137
 C         2.379017         0.500484         1.119673
 O         2.235785         0.662432        -0.939449
 H        -0.542399        -0.453855         0.816073
 H        -0.320621         1.120468         0.022363
 H        -0.394164        -0.307080        -1.029518
 H         2.466087        -1.880399         1.028365
 H         2.640169        -1.947695        -0.826919
 H         5.491130        -0.564451         0.146507
 H         4.968343         1.178608         0.353827
 H         2.538277        -0.929879         2.727256
 H         2.864018         0.573932         3.428634
 H         2.311819         1.593307         1.256883
