19
Iteration:   542charge 0 multiplicity 1
 C        -0.194807         0.087293        -0.176365
 C         1.352740        -0.080814         0.117480
 C         2.185710        -1.328803         0.023757
 C         3.203305        -0.183258         0.057275
 C         4.685391        -0.157823         0.609242
 O         4.548109         0.264405         1.990559
 C         3.183358        -0.047933         2.445614
 C         2.294330         0.412659         1.278451
 O         2.350477         0.554620        -0.898918
 H        -0.825524        -0.735270         0.399606
 H        -0.535349         1.049647        -0.118747
 H        -0.383278        -0.203813        -1.180049
 H         2.168471        -2.063813         0.840644
 H         2.094329        -1.924516        -0.906941
 H         5.178877        -1.213876         0.414817
 H         5.275787         0.666935         0.035628
 H         3.136668        -1.200470         2.639696
 H         3.069977         0.490456         3.333239
 H         2.350797         1.468788         1.367336
