19
Iteration:  4285
 C        -0.124632         0.026184        -0.048494
 C         1.402112        -0.107527         0.127804
 C         2.233069        -1.345972        -0.098679
 C         3.182105        -0.070474         0.135314
 C         4.596690        -0.013995         0.521038
 O         4.477524        -0.004972         1.969893
 C         3.036870        -0.206228         2.403130
 C         2.329387         0.456979         1.256962
 O         2.464698         0.750397        -0.824288
 H        -0.388463         1.089385         0.159060
 H        -0.359721        -0.046494        -1.192693
 H        -0.876261        -0.755716         0.456151
 H         2.274766        -2.037710         0.762536
 H         2.451539        -1.817555        -1.062567
 H         5.330026        -0.769319         0.275994
 H         5.123849         0.952050         0.124251
 H         2.797361        -1.318807         2.555430
 H         2.905429         0.162838         3.400861
 H         2.228127         1.595071         1.185239
