19
Iteration:  3997charge 0 multiplicity 1
 C        -0.146722         0.074042        -0.079706
 C         1.384293        -0.128319         0.213093
 C         2.186601        -1.417827        -0.013348
 C         3.222220        -0.182358         0.024741
 C         4.655409        -0.017446         0.557071
 O         4.531991        -0.011835         2.046485
 C         3.047532         0.035604         2.422635
 C         2.389795         0.517421         1.118279
 O         2.365926         0.577144        -0.879551
 H        -0.091903         0.642456        -1.085956
 H        -0.685256        -0.893249         0.120667
 H        -0.443054         0.856222         0.569686
 H         2.169540        -2.017706         0.818783
 H         1.877072        -1.778523        -1.018343
 H         5.334832        -0.817814         0.232111
 H         5.069013         0.963252         0.342996
 H         2.628130        -1.074642         2.757262
 H         3.104547         0.726668         3.243025
 H         2.231699         1.612257         0.992643
