19
Iteration:   316
 C        -0.026247         0.264055        -0.122120
 C         1.396740        -0.203102         0.113555
 C         2.202458        -1.472203         0.086346
 C         3.167459        -0.236753         0.090680
 C         4.566062         0.008896         0.535995
 O         4.528998         0.261291         1.993302
 C         3.120145        -0.075424         2.464493
 C         2.270354         0.388468         1.270567
 O         2.358977         0.480098        -1.012414
 H        -0.661373        -0.441603         0.545709
 H        -0.069834         1.121168         0.417363
 H        -0.361990         0.383647        -1.098579
 H         2.172486        -2.089304         0.951812
 H         2.335079        -1.946149        -0.907114
 H         5.223554        -0.782485         0.248454
 H         5.042201         0.868712         0.022019
 H         2.996682        -1.158796         2.730989
 H         2.901978         0.489297         3.385282
 H         2.275993         1.448217         1.285608
