19
Iteration:  3473
 C        -0.165703         0.095252        -0.005382
 C         1.328691        -0.057209         0.080685
 C         2.341470        -1.388131         0.095449
 C         3.191876        -0.147083         0.111324
 C         4.603515        -0.054811         0.608532
 O         4.509087        -0.215919         2.052562
 C         3.126352         0.256198         2.362752
 C         2.355155         0.637025         1.115780
 O         2.336189         0.393135        -1.023976
 H        -0.547709        -0.846707         0.373103
 H        -0.615629         0.872824         0.713510
 H        -0.476594         0.332166        -0.981637
 H         2.177195        -2.117465         0.942709
 H         2.480960        -1.943255        -0.837427
 H         5.299439        -0.822746         0.216141
 H         4.942371         1.032422         0.346757
 H         2.636474        -0.499812         2.961918
 H         3.110441         1.197198         2.977589
 H         2.520070         1.691759         0.950365
