19
Iteration:   991
 C        -0.056052        -0.032159        -0.152199
 C         1.376747        -0.066909         0.128844
 C         2.309948        -1.284855         0.020866
 C         3.220359        -0.104819         0.118283
 C         4.610396         0.021306         0.517136
 O         4.424568        -0.268022         1.950569
 C         3.091553         0.127055         2.451344
 C         2.390746         0.616817         1.207192
 O         2.280405         0.542061        -0.853438
 H        -0.589544        -0.083052         0.804943
 H        -0.348344         0.878023        -0.606827
 H        -0.444394        -0.872453        -0.788265
 H         2.428009        -2.031079         0.943118
 H         2.108591        -1.834916        -0.927099
 H         5.279057        -0.778124         0.197041
 H         5.141129         0.988895         0.333173
 H         2.703273        -0.776167         3.066782
 H         3.204331         0.924812         3.187916
 H         2.337553         1.715765         1.289780
