19
Iteration:   661charge 0 multiplicity 1
 C        -0.211448         0.047882        -0.114974
 C         1.388500        -0.135001         0.195402
 C         2.334575        -1.382305         0.103160
 C         3.174859        -0.111882         0.082887
 C         4.624182         0.031225         0.496497
 O         4.488935        -0.213658         2.019526
 C         3.115723         0.134680         2.425058
 C         2.316122         0.591634         1.179564
 O         2.359872         0.549335        -0.966233
 H        -0.782924        -0.573871         0.732666
 H        -0.522409         1.031316        -0.178467
 H        -0.500090        -0.419664        -1.037744
 H         2.522771        -2.040858         0.948005
 H         2.479734        -1.906055        -0.849792
 H         5.447353        -0.549410         0.137660
 H         5.074504         1.083735         0.506969
 H         2.640888        -0.774889         2.913911
 H         3.229726         0.879589         3.150707
 H         2.344276         1.617436         0.965361
