19
Iteration:  1822charge 0 multiplicity 1
 C        -0.012971         0.050459        -0.123590
 C         1.392551        -0.114371         0.202912
 C         2.156599        -1.449961         0.065132
 C         3.176867        -0.112945         0.065239
 C         4.608790         0.033724         0.514165
 O         4.502708        -0.108567         2.042360
 C         3.116081         0.098768         2.434657
 C         2.366249         0.643758         1.206567
 O         2.336026         0.473845        -0.965477
 H        -0.632835        -0.309821         0.673763
 H        -0.345733         1.174248        -0.247167
 H        -0.279135        -0.650324        -0.984030
 H         2.084454        -2.096080         0.983029
 H         2.049907        -1.805363        -0.991442
 H         5.262790        -0.762684         0.131451
 H         4.850110         1.015317         0.132198
 H         2.748351        -0.913295         2.792050
 H         3.177791         0.814883         3.224278
 H         2.443347         1.729935         1.230636
