19
Iteration:  4863charge 0 multiplicity 1
 C        -0.066585         0.157576        -0.084369
 C         1.400308        -0.124545         0.190199
 C         2.325357        -1.331540        -0.135014
 C         3.171440        -0.124225         0.133520
 C         4.664323         0.044104         0.483279
 O         4.491535         0.045245         2.011976
 C         3.060956        -0.260217         2.439685
 C         2.325234         0.417158         1.277588
 O         2.285905         0.639023        -0.872975
 H        -0.696256         1.046806         0.408885
 H        -0.308287         0.205664        -1.171940
 H        -0.696907        -0.635301         0.411210
 H         2.394120        -2.238421         0.449901
 H         2.229614        -1.504249        -1.266893
 H         5.476665        -0.770869         0.305363
 H         5.030183         1.057760         0.196234
 H         2.876416        -1.336298         2.380843
 H         2.842719         0.165761         3.502550
 H         2.267768         1.564830         1.459864
