19
Iteration:  2600charge 0 multiplicity 1
 C        -0.013718         0.085268        -0.127028
 C         1.367078        -0.125651         0.209591
 C         2.304144        -1.305300         0.219062
 C         3.188485        -0.038041        -0.005173
 C         4.561451        -0.001647         0.517868
 O         4.462807        -0.262428         1.937735
 C         3.119119         0.071090         2.451295
 C         2.314390         0.607484         1.226884
 O         2.347350         0.465526        -1.013786
 H        -0.860717         0.376700         0.593389
 H        -0.058359         1.053717        -0.587011
 H        -0.424984        -0.720181        -0.865640
 H         2.456019        -1.737812         1.193208
 H         2.317998        -2.053072        -0.545920
 H         5.218734        -0.726550         0.172577
 H         4.779423         1.128530         0.476673
 H         2.590192        -0.813684         2.982096
 H         3.114610         0.832699         3.255066
 H         2.241447         1.717615         1.179574
