19
Iteration:  1398charge 0 multiplicity 1
 C        -0.017842         0.094994        -0.013012
 C         1.366916        -0.128952         0.127325
 C         2.254529        -1.380054         0.004550
 C         3.211164        -0.160078         0.093956
 C         4.693261        -0.093650         0.532431
 O         4.437622         0.083117         2.029213
 C         2.976911         0.027246         2.353949
 C         2.389906         0.524499         1.152873
 O         2.323106         0.529153        -0.894459
 H        -0.500887        -0.265045         0.797200
 H        -0.353604         1.190872         0.103716
 H        -0.473819        -0.417342        -0.871483
 H         2.420902        -1.989123         0.886642
 H         2.273658        -2.050062        -0.857695
 H         5.281929        -0.984105         0.426743
 H         5.069453         0.801922         0.003703
 H         2.715894        -1.086189         2.566661
 H         2.831564         0.614023         3.280909
 H         2.489974         1.624119         1.036364
