19
Iteration:  1215charge 0 multiplicity 1
 C        -0.022487         0.086371         0.006007
 C         1.445184        -0.186783         0.041459
 C         2.364912        -1.367908         0.074345
 C         3.151992        -0.104746         0.110437
 C         4.645257         0.142466         0.566900
 O         4.341244        -0.328461         1.909480
 C         3.123304         0.176195         2.510328
 C         2.231135         0.593109         1.163667
 O         2.355507         0.482972        -0.979640
 H        -0.584908        -0.126143         0.880637
 H        -0.138954         1.105422        -0.164356
 H        -0.615940        -0.437402        -0.749175
 H         2.216285        -1.967669         0.931992
 H         2.523866        -2.029128        -0.774431
 H         5.342733        -0.578618         0.112691
 H         4.963657         1.177508         0.448936
 H         2.756296        -0.543427         3.139604
 H         3.455866         1.037519         3.091239
 H         2.083686         1.648966         1.074004
