19
Iteration:  2297charge 0 multiplicity 1
 C        -0.082071         0.128278        -0.191179
 C         1.393514        -0.109671         0.065355
 C         2.251394        -1.418523         0.305822
 C         3.190850        -0.177280         0.130462
 C         4.620863         0.143882         0.587043
 O         4.472060        -0.259807         1.944586
 C         3.180605         0.146252         2.464251
 C         2.412380         0.639952         1.119506
 O         2.252058         0.393957        -0.979694
 H        -0.787710        -0.476561         0.372441
 H        -0.330298         1.129910        -0.021956
 H        -0.360646        -0.029886        -1.257879
 H         2.208927        -1.932385         1.291552
 H         2.281052        -2.167547        -0.545392
 H         5.592223        -0.220235         0.067438
 H         4.450013         1.111646         0.372472
 H         2.553381        -0.695130         2.873717
 H         3.291443         0.947629         3.306380
 H         2.333294         1.773728         0.879269
