19
Iteration:  2438charge 0 multiplicity 1
 C        -0.030036         0.289142        -0.221376
 C         1.374588        -0.124707         0.171407
 C         2.230918        -1.510530         0.106870
 C         3.151568        -0.172517         0.180800
 C         4.545929         0.057499         0.485056
 O         4.581102         0.105364         2.028973
 C         3.172457        -0.043789         2.403622
 C         2.343435         0.471857         1.229881
 O         2.250077         0.361147        -0.936936
 H        -0.687644         0.526314         0.646649
 H         0.180810         1.205647        -0.688918
 H        -0.550712        -0.379637        -1.002304
 H         2.070814        -2.174140         0.942380
 H         2.197100        -1.942973        -0.899166
 H         5.207484        -0.766921         0.361914
 H         4.867854         1.034818         0.118653
 H         2.978760        -1.000721         2.762038
 H         3.052262         0.666482         3.298308
 H         2.344657         1.595466         1.269779
