19
Iteration:  2396
 C        -0.069378         0.154147         0.031180
 C         1.393849        -0.085204         0.090871
 C         2.232484        -1.384542         0.080334
 C         3.172466        -0.179291         0.097367
 C         4.593338        -0.124918         0.548880
 O         4.480487         0.100655         2.030243
 C         3.048942         0.048746         2.370737
 C         2.394780         0.550032         1.121372
 O         2.385447         0.455485        -0.950039
 H        -0.567985        -0.210448         0.857488
 H        -0.487051         1.024707        -0.363682
 H        -0.500672        -0.552490        -0.687995
 H         2.246112        -2.065060         0.954589
 H         2.361964        -1.835706        -0.919230
 H         5.093621        -1.148639         0.330179
 H         5.107560         0.711794         0.152112
 H         2.771490        -1.026984         2.520404
 H         2.863046         0.616205         3.368202
 H         2.488274         1.685063         0.970026
