19
Iteration:  1615
 C        -0.064726         0.162570        -0.177868
 C         1.426431        -0.158888         0.172263
 C         2.218917        -1.419482         0.051119
 C         3.193408        -0.189148         0.152268
 C         4.607751        -0.133319         0.507336
 O         4.514025         0.184437         1.905261
 C         3.088663         0.039722         2.385440
 C         2.216460         0.436405         1.313462
 O         2.397774         0.513945        -0.837172
 H        -0.844066        -0.428383         0.240151
 H        -0.305498         1.143052         0.305232
 H        -0.248984         0.007696        -1.276023
 H         2.309610        -2.226462         0.810900
 H         2.189010        -1.758791        -1.014487
 H         5.150509        -1.015412         0.283870
 H         5.238624         0.704427         0.052508
 H         2.852367        -1.007466         2.718606
 H         3.001606         0.833982         3.110610
 H         2.253387         1.561026         1.388963
