19
Iteration:  3395
 C        -0.073937         0.115834        -0.184240
 C         1.358917        -0.074998         0.097408
 C         2.153562        -1.392424         0.190457
 C         3.205753        -0.146427         0.181669
 C         4.619338        -0.088095         0.509154
 O         4.566564         0.032244         1.975591
 C         3.115417         0.053983         2.449634
 C         2.372137         0.577020         1.214980
 O         2.298519         0.425009        -0.954108
 H        -0.657799        -0.743890         0.062081
 H        -0.479414         1.066553         0.227502
 H        -0.204780         0.065079        -1.250739
 H         2.266838        -2.013358         1.081648
 H         2.083403        -1.980963        -0.785028
 H         5.201390        -0.913325         0.153339
 H         5.106146         0.837882         0.000663
 H         2.860601        -0.873600         2.830463
 H         3.086653         0.874009         3.170192
 H         2.309087         1.664165         1.214131
