19
Iteration:  3298charge 0 multiplicity 1
 C        -0.031210         0.168056         0.008800
 C         1.400722        -0.081817         0.123153
 C         2.261709        -1.434879         0.061231
 C         3.225967        -0.199346         0.124613
 C         4.625301        -0.023448         0.505320
 O         4.416136         0.020502         1.924980
 C         3.081195         0.018409         2.459934
 C         2.353653         0.609878         1.166226
 O         2.351553         0.424527        -0.928169
 H        -0.657809         0.151696         0.924272
 H        -0.230179         1.181233        -0.602977
 H        -0.449005        -0.727171        -0.508295
 H         2.146150        -2.147977         0.833483
 H         2.115308        -1.929555        -0.923219
 H         5.467397        -0.699674         0.382161
 H         4.996397         0.951778         0.242219
 H         2.638400        -1.097011         2.650154
 H         2.757911         0.687002         3.238997
 H         2.353650         1.663758         0.975684
