19
Iteration:  3190charge 0 multiplicity 1
 C        -0.125483         0.004814         0.003972
 C         1.412923        -0.065160         0.049486
 C         2.299107        -1.353229         0.181494
 C         3.184596        -0.128950         0.122766
 C         4.618328        -0.005471         0.507892
 O         4.471157        -0.277265         2.009733
 C         3.040787         0.174676         2.448498
 C         2.389856         0.644468         1.083351
 O         2.334873         0.539806        -1.024679
 H        -0.481870        -0.804311         0.634302
 H        -0.483080         0.914219         0.643035
 H        -0.497129        -0.000985        -1.018874
 H         2.248326        -1.914177         1.164794
 H         2.446521        -1.964760        -0.780145
 H         5.424186        -0.881784         0.301953
 H         5.094754         0.950182         0.153671
 H         2.465396        -0.600889         2.815551
 H         3.098408         0.988481         3.157366
 H         2.372649         1.691253         0.944947
