19
Iteration:  1859
 C        -0.100491         0.184987         0.012822
 C         1.412895        -0.107853         0.022652
 C         2.275544        -1.462149         0.055062
 C         3.164082        -0.161574         0.096934
 C         4.662494        -0.104065         0.512498
 O         4.487100         0.152152         2.040002
 C         3.066398         0.014003         2.415905
 C         2.335402         0.503408         1.178663
 O         2.339941         0.464498        -0.980235
 H        -0.483124        -0.718646         0.538633
 H        -0.274592         1.093909         0.578101
 H        -0.551490         0.414804        -0.938126
 H         2.081740        -2.102689         0.929539
 H         2.213084        -2.117875        -0.830478
 H         5.271689        -1.007431         0.526835
 H         5.223221         0.776339         0.124908
 H         2.865399        -1.137190         2.807499
 H         2.777906         0.726568         3.260477
 H         2.275947         1.647278         1.059672
