19
Iteration:  3484
 C        -0.123584         0.052629         0.009609
 C         1.396690        -0.181441         0.116094
 C         2.266821        -1.278908         0.132428
 C         3.219104        -0.101273         0.115910
 C         4.650176        -0.069969         0.599504
 O         4.504144        -0.255751         2.042059
 C         3.089382         0.245452         2.453029
 C         2.295257         0.618421         1.011976
 O         2.310117         0.472070        -1.086836
 H        -0.654575        -0.810247         0.382542
 H        -0.389954         1.016814         0.605774
 H        -0.439490         0.128649        -0.986459
 H         2.378222        -1.753802         1.177515
 H         2.270153        -1.953830        -0.721569
 H         5.262072        -0.952945         0.289885
 H         5.216696         0.911931         0.249207
 H         2.689627        -0.546873         3.162384
 H         3.293037         1.217750         3.018206
 H         2.244712         1.689462         0.822935
