19
Iteration:  3955
 C        -0.169652         0.082041        -0.121873
 C         1.345719        -0.156369         0.161405
 C         2.320191        -1.306164         0.110995
 C         3.202609         0.008165         0.127141
 C         4.625968        -0.138053         0.499500
 O         4.510337        -0.028682         2.021844
 C         3.086097        -0.058939         2.374651
 C         2.309466         0.618992         1.249100
 O         2.358840         0.526422        -0.972953
 H        -0.362272         0.425502        -1.228342
 H        -0.733851        -0.844998         0.023341
 H        -0.462933         0.881244         0.555700
 H         2.337552        -2.012917         0.954165
 H         2.412506        -1.846039        -0.880194
 H         5.173811        -1.012695         0.243568
 H         5.313712         0.596174         0.023809
 H         2.867870        -1.164916         2.672845
 H         3.023460         0.557440         3.256961
 H         2.304152         1.704137         1.340186
