19
Iteration:  1404charge 0 multiplicity 1
 C        -0.043477         0.099133        -0.028389
 C         1.377558        -0.101127         0.166929
 C         2.303448        -1.378775         0.028593
 C         3.215508        -0.165653         0.050101
 C         4.696400        -0.117740         0.625706
 O         4.473724         0.053835         1.985972
 C         2.980565         0.018836         2.398472
 C         2.383165         0.505997         1.102186
 O         2.254643         0.580171        -0.933858
 H        -0.547756        -0.558034         0.884954
 H        -0.261055         1.129030         0.064583
 H        -0.398077        -0.403187        -0.932012
 H         2.316383        -2.076643         0.921488
 H         2.175274        -2.059591        -0.838588
 H         5.472756        -0.936130         0.476520
 H         5.224281         0.806442         0.263772
 H         2.587138        -0.932075         2.672916
 H         2.856720         0.810448         3.151174
 H         2.386430         1.591824         0.929101
