19
Iteration:    64
 C        -0.054701         0.243568        -0.147125
 C         1.370560        -0.183385         0.125002
 C         2.227842        -1.486268         0.129382
 C         3.210151        -0.138290         0.085513
 C         4.701871         0.016364         0.543744
 O         4.470522         0.236957         1.973079
 C         3.061570        -0.125212         2.387558
 C         2.312000         0.445528         1.238199
 O         2.305883         0.449453        -0.919758
 H        -0.702074        -0.217333         0.713613
 H        -0.107668         1.267405        -0.079884
 H        -0.394327        -0.136162        -1.043907
 H         2.139321        -2.252494         0.916038
 H         2.326934        -1.803537        -0.877506
 H         5.379424        -0.809190         0.370924
 H         5.353761         0.797767         0.042087
 H         2.919476        -1.192584         2.689908
 H         2.956514         0.444743         3.303759
 H         2.177646         1.494647         1.317204
