19
Iteration:  3133charge 0 multiplicity 1
 C        -0.086341         0.119594        -0.008446
 C         1.417470        -0.102414         0.090652
 C         2.308157        -1.385216         0.145110
 C         3.144194        -0.109527         0.079015
 C         4.597837         0.021948         0.555962
 O         4.542328        -0.191424         1.953094
 C         3.002805         0.077010         2.397442
 C         2.302176         0.583165         1.131574
 O         2.394133         0.499398        -0.948738
 H        -0.560685         0.058063         1.024997
 H        -0.202728         1.116392        -0.455863
 H        -0.748079        -0.664311        -0.595937
 H         2.165887        -1.838777         1.127901
 H         2.334070        -2.029072        -0.759867
 H         5.346481        -0.809572         0.193791
 H         4.958745         1.063412         0.248849
 H         2.602517        -0.816923         2.823732
 H         3.191221         0.728465         3.207793
 H         2.124914         1.641821         0.968082
