19
Iteration:  3898charge 0 multiplicity 1
 C        -0.163232         0.157470        -0.078806
 C         1.376624        -0.172303         0.102367
 C         2.255474        -1.412656        -0.033404
 C         3.195818        -0.074040         0.134382
 C         4.612575         0.062072         0.596210
 O         4.578277        -0.127203         2.010398
 C         3.077980        -0.005126         2.428501
 C         2.233043         0.505551         1.191655
 O         2.407710         0.553965        -0.949349
 H        -0.536563        -0.481174        -0.931685
 H        -0.554722        -0.087067         0.972239
 H        -0.343875         1.201704        -0.200453
 H         2.237526        -1.996565         0.837845
 H         2.227789        -1.979787        -0.971231
 H         5.138492        -0.778205         0.226966
 H         4.918659         1.032604         0.251964
 H         2.978516        -0.974802         2.967154
 H         3.214027         0.733142         3.164355
 H         2.314295         1.605150         1.167023
