19
Iteration:  3786
 C        -0.036262         0.028769        -0.103248
 C         1.439807        -0.153600         0.179696
 C         2.337167        -1.348026         0.025719
 C         3.201591        -0.004772         0.067523
 C         4.660649         0.010593         0.573421
 O         4.410174        -0.305498         1.964814
 C         3.036980         0.144513         2.409032
 C         2.390254         0.542407         1.225530
 O         2.248966         0.585417        -0.908262
 H        -0.497915        -0.298991        -0.981672
 H        -0.530572        -0.324966         0.829936
 H        -0.502578         1.091831        -0.042421
 H         2.466304        -2.032887         0.853927
 H         2.381951        -1.750225        -0.919988
 H         5.103436        -0.860432         0.016690
 H         5.218660         0.960347         0.349044
 H         2.559423        -0.726743         2.794138
 H         3.071089         1.001871         3.041342
 H         2.246740         1.652435         1.176442
