19
Iteration:  4510
 C        -0.151168         0.042520        -0.049681
 C         1.394259        -0.127294         0.141579
 C         2.375451        -1.288523        -0.063440
 C         3.162812         0.050660         0.143285
 C         4.613889         0.041075         0.532828
 O         4.484842        -0.230105         1.975374
 C         3.076576        -0.099697         2.408012
 C         2.267539         0.498927         1.250213
 O         2.377803         0.632093        -0.913815
 H        -0.546456         0.743345         0.685596
 H        -0.338414         0.434341        -1.046302
 H        -0.668519        -0.943991         0.153016
 H         2.602585        -1.995709         0.687080
 H         2.245173        -1.627616        -0.995907
 H         5.316565        -0.717006         0.067796
 H         4.922516         1.107778         0.339929
 H         2.626021        -1.099207         2.572978
 H         3.074864         0.539533         3.382309
 H         2.517445         1.551162         1.368731
