19
Iteration:  2282charge 0 multiplicity 1
 C        -0.062647         0.134871        -0.206815
 C         1.370450        -0.127744         0.103083
 C         2.231855        -1.381971         0.267201
 C         3.207684        -0.178394         0.161171
 C         4.601150         0.206112         0.509716
 O         4.487845        -0.241217         1.929056
 C         3.094328         0.140629         2.387147
 C         2.385197         0.591980         1.197337
 O         2.266810         0.374606        -0.939887
 H        -0.542527        -0.425039         0.639912
 H        -0.099304         1.249618        -0.387706
 H        -0.245144        -0.291290        -1.161914
 H         2.107982        -1.784180         1.250201
 H         2.267539        -2.133618        -0.477956
 H         5.284283        -0.563897         0.213076
 H         5.041089         1.227054         0.605904
 H         2.799471        -0.756819         2.893764
 H         3.214250         0.949213         3.125543
 H         2.581837         1.593827         0.995654
