19
Iteration:  4152
 C        -0.071563         0.056870        -0.076367
 C         1.492262        -0.102617         0.136712
 C         2.388317        -1.343723         0.025306
 C         3.235974         0.044550         0.034540
 C         4.663259         0.085181         0.558529
 O         4.400180        -0.312723         1.970376
 C         3.025701        -0.037691         2.425358
 C         2.296869         0.590159         1.277476
 O         2.243049         0.576609        -0.942467
 H        -0.642658        -0.753597         0.425602
 H        -0.486995         0.968048         0.368902
 H        -0.194692         0.031053        -1.256557
 H         2.477334        -1.965604         0.919993
 H         2.260790        -1.913295        -0.844045
 H         5.205843        -0.709544         0.097769
 H         5.080971         1.074367         0.713696
 H         2.628118        -1.041527         2.873028
 H         3.187957         0.739188         3.082960
 H         2.244884         1.669611         1.144502
