19
Iteration:  2390
 C        -0.050440         0.094064         0.016409
 C         1.377722        -0.042464         0.107771
 C         2.213462        -1.367786         0.024554
 C         3.182356        -0.162570         0.102618
 C         4.611840        -0.147661         0.586894
 O         4.516442         0.085782         2.037157
 C         3.022891         0.074852         2.381473
 C         2.414555         0.591928         1.113647
 O         2.343775         0.430682        -0.990978
 H        -0.534483        -0.283931         1.026196
 H        -0.665023         1.139706        -0.148000
 H        -0.413448        -0.603510        -0.785939
 H         2.237195        -2.070827         0.888988
 H         2.108204        -1.898296        -0.929984
 H         5.159915        -1.076044         0.573234
 H         5.323713         0.732936         0.359960
 H         2.672636        -0.978573         2.497184
 H         3.023276         0.496060         3.326868
 H         2.484751         1.639151         1.001531
