19
Iteration:  2973
 C        -0.160304         0.135994        -0.037537
 C         1.357410        -0.120284         0.127656
 C         2.229769        -1.387703         0.172322
 C         3.222377        -0.095369         0.140913
 C         4.706111        -0.062481         0.494149
 O         4.517265        -0.085264         1.961204
 C         3.006279         0.080628         2.376536
 C         2.327257         0.599194         1.163036
 O         2.399036         0.444578        -0.975714
 H        -0.865574        -0.654401         0.231043
 H        -0.425684         1.124035         0.606211
 H        -0.265781         0.237735        -1.082974
 H         2.110429        -2.110994         1.011145
 H         2.428586        -1.866474        -0.846826
 H         5.173000        -0.933206         0.263034
 H         5.314294         0.792767         0.203091
 H         2.879206        -0.856912         3.048865
 H         2.965372         0.891368         3.184524
 H         2.187496         1.661047         0.919473
