19
Iteration:  1661charge 0 multiplicity 1
 C        -0.103625         0.082332        -0.189710
 C         1.298579        -0.043558         0.125448
 C         2.207482        -1.377554         0.106619
 C         3.185740        -0.228009         0.138901
 C         4.701278         0.045568         0.598510
 O         4.571238         0.023536         1.971527
 C         3.082555         0.010133         2.438221
 C         2.366224         0.504460         1.187689
 O         2.289638         0.481278        -0.946213
 H        -0.617935        -0.739053         0.186565
 H        -0.413944         0.993457         0.441406
 H        -0.143459         0.056506        -1.298350
 H         2.035732        -1.874490         1.058939
 H         2.003691        -2.063553        -0.703217
 H         5.348896        -0.736319         0.343576
 H         5.115328         0.964015         0.062846
 H         2.847101        -0.979770         2.712507
 H         3.120962         0.644610         3.276430
 H         2.496871         1.576145         1.198896
