19
Iteration:    65
 C        -0.057191         0.237263        -0.144841
 C         1.374564        -0.190918         0.134450
 C         2.227033        -1.480460         0.137141
 C         3.208455        -0.135911         0.083943
 C         4.706015         0.005952         0.544162
 O         4.470070         0.238343         1.970629
 C         3.058690        -0.131945         2.381266
 C         2.303855         0.456707         1.235833
 O         2.310870         0.454161        -0.921219
 H        -0.669467        -0.203486         0.676295
 H        -0.095342         1.254520        -0.073841
 H        -0.380863        -0.142757        -1.039779
 H         2.145674        -2.238514         0.911208
 H         2.308679        -1.768027        -0.884262
 H         5.367669        -0.817787         0.384236
 H         5.341351         0.806201         0.053847
 H         2.927677        -1.194572         2.661518
 H         2.976465         0.447621         3.297727
 H         2.149000         1.491734         1.312015
