19
Iteration:  1335charge 0 multiplicity 1
 C        -0.014324         0.231636        -0.200066
 C         1.410448        -0.131904         0.144429
 C         2.236198        -1.471817         0.035978
 C         3.170483        -0.261122         0.165211
 C         4.595587        -0.017000         0.582278
 O         4.478112         0.168463         1.937830
 C         3.084057        -0.073881         2.425730
 C         2.410004         0.504495         1.221489
 O         2.211436         0.515631        -0.845495
 H        -0.555831        -0.026376         0.716033
 H        -0.027056         1.307387        -0.585078
 H        -0.371237        -0.541870        -0.929702
 H         2.384653        -2.180516         0.843210
 H         2.353890        -1.961984        -0.941639
 H         5.339611        -0.805818         0.358681
 H         4.917890         0.878455         0.074597
 H         2.979069        -1.170023         2.596498
 H         3.037280         0.467736         3.361951
 H         2.616830         1.566479         1.086145
