19
Iteration:  2595charge 0 multiplicity 1
 C        -0.023839         0.081539        -0.133319
 C         1.362006        -0.183499         0.249039
 C         2.277021        -1.269423         0.230018
 C         3.173257        -0.023893         0.012783
 C         4.535194         0.055230         0.521624
 O         4.445618        -0.288803         1.951367
 C         3.089010         0.102582         2.424749
 C         2.346193         0.586543         1.201640
 O         2.390841         0.460740        -1.058222
 H        -0.642280         0.211988         0.738517
 H        -0.083841         1.149686        -0.495308
 H        -0.459731        -0.597900        -0.770876
 H         2.402039        -1.846130         1.184559
 H         2.226724        -2.016669        -0.620411
 H         5.295081        -0.727969         0.127771
 H         5.022324         1.011509         0.518903
 H         2.747703        -0.809891         2.953520
 H         3.215046         0.853575         3.213636
 H         2.212173         1.658582         1.325427
