19
Iteration:  1831charge 0 multiplicity 1
 C        -0.080091         0.071125        -0.092001
 C         1.388015        -0.090485         0.174237
 C         2.200988        -1.429083         0.057322
 C         3.131972        -0.153164         0.088481
 C         4.566022         0.017658         0.480522
 O         4.497147        -0.057625         2.011303
 C         3.113576         0.110531         2.430329
 C         2.377406         0.549619         1.203713
 O         2.428703         0.489509        -0.937128
 H        -0.616709        -0.431021         0.776869
 H        -0.372716         1.147608        -0.067167
 H        -0.392583        -0.345509        -1.082992
 H         2.134499        -2.156150         0.888480
 H         1.920344        -1.982715        -0.843431
 H         5.417451        -0.723010         0.362229
 H         5.008628         0.980199         0.247559
 H         2.806797        -0.811486         2.778428
 H         2.975897         0.767659         3.273735
 H         2.361054         1.566616         0.921887
