19
Iteration:  2708charge 0 multiplicity 1
 C        -0.116387         0.218254         0.025944
 C         1.398887        -0.095194         0.159435
 C         2.273231        -1.340248         0.004948
 C         3.233637        -0.161144         0.014026
 C         4.622863        -0.089532         0.619407
 O         4.465304         0.134894         2.086301
 C         3.109174        -0.050536         2.444889
 C         2.449085         0.509217         1.115797
 O         2.249241         0.392986        -1.065952
 H        -0.751925        -0.550579         0.573062
 H        -0.227871         1.180357         0.435173
 H        -0.365368         0.261234        -1.097698
 H         2.246510        -2.024215         0.921179
 H         2.111305        -2.013570        -0.847257
 H         5.100283        -1.107722         0.350433
 H         5.304661         0.669037         0.145925
 H         2.718667        -1.114183         2.766647
 H         2.687656         0.595659         3.227213
 H         2.524496         1.609818         1.136703
