19
Iteration:  2411
 C        -0.102084         0.162440        -0.075313
 C         1.398185        -0.132921         0.134673
 C         2.288554        -1.432997         0.132257
 C         3.192801        -0.201628         0.124600
 C         4.597897        -0.079570         0.481037
 O         4.437929         0.123599         1.926524
 C         3.055077        -0.019383         2.412228
 C         2.304723         0.494096         1.211653
 O         2.421038         0.504636        -0.953391
 H        -0.500720         0.405936         0.962425
 H         0.102442         1.328597        -0.326776
 H        -0.690434        -0.443899        -0.817364
 H         2.173513        -2.029785         1.089144
 H         2.149840        -2.125310        -0.706719
 H         5.304307        -0.955691         0.393577
 H         5.097728         0.867857         0.021006
 H         2.820518        -1.024879         2.931849
 H         3.059246         0.711499         3.175540
 H         2.343828         1.571063         1.200990
