19
Iteration:   134charge 0 multiplicity 1
 C        -0.107360        -0.034940        -0.083135
 C         1.376826        -0.097960         0.054889
 C         2.253770        -1.478405        -0.063578
 C         3.214047        -0.159091         0.128702
 C         4.641932        -0.101976         0.633792
 O         4.562173        -0.098327         2.099548
 C         3.115535         0.201851         2.458848
 C         2.405042         0.575319         1.106160
 O         2.193610         0.664528        -0.913757
 H        -0.498542        -0.570261         0.623014
 H        -0.525260         1.024339         0.027412
 H        -0.405250        -0.566283        -1.038213
 H         2.197383        -2.259631         0.687287
 H         2.224824        -1.829781        -1.138342
 H         5.236922        -0.892759         0.235037
 H         5.118861         0.793331         0.277959
 H         2.718935        -0.616518         3.022656
 H         3.082964         1.143818         3.090290
 H         2.385437         1.696320         0.970892
