19
Iteration:  4480
 C        -0.030532        -0.038304        -0.054242
 C         1.417342        -0.016690         0.082911
 C         2.300180        -1.264894        -0.023630
 C         3.253040        -0.010268         0.033893
 C         4.685253         0.133756         0.614966
 O         4.420141        -0.355881         1.993114
 C         3.065573        -0.083269         2.423594
 C         2.386039         0.516036         1.216664
 O         2.187668         0.669031        -0.901968
 H        -0.473460         0.700379         0.548143
 H        -0.358469         0.306611        -1.029925
 H        -0.388129        -1.078449         0.143811
 H         2.393832        -1.946528         0.939535
 H         2.000476        -1.881324        -0.921349
 H         5.493471        -0.450632         0.211014
 H         4.820256         1.174703         0.535162
 H         2.649660        -1.095760         2.679994
 H         3.183732         0.621026         3.323842
 H         2.453393         1.638294         1.133278
