19
Iteration:  1631charge 0 multiplicity 1
 C        -0.119835         0.159560        -0.207259
 C         1.265724        -0.166846         0.143937
 C         2.230388        -1.457607        -0.018736
 C         3.106739        -0.206461         0.133643
 C         4.559964        -0.040720         0.548775
 O         4.576605         0.130964         1.999135
 C         3.214328         0.054504         2.544221
 C         2.332633         0.490077         1.226148
 O         2.393873         0.501764        -0.908501
 H        -0.731489        -0.734008         0.193726
 H        -0.353256         1.141251         0.295190
 H        -0.070758         0.257279        -1.312799
 H         2.106269        -2.127054         0.825414
 H         2.234738        -1.965049        -0.969233
 H         5.156928        -0.979006         0.308814
 H         4.904836         0.844998         0.036109
 H         3.001682        -0.989832         2.784933
 H         3.255583         0.704944         3.445220
 H         2.316038         1.574478         1.051830
