19
Iteration:  2788charge 0 multiplicity 1
 C        -0.104473         0.075288        -0.207697
 C         1.322734        -0.063127         0.104064
 C         2.263799        -1.348223         0.238572
 C         3.158661        -0.118131         0.097067
 C         4.652386        -0.066664         0.546193
 O         4.564900        -0.106529         1.995494
 C         3.170115         0.055831         2.413699
 C         2.374624         0.580571         1.196466
 O         2.204149         0.522353        -0.940560
 H        -0.667520        -0.789650         0.109461
 H        -0.454214         1.021931         0.276802
 H         0.058707         0.046359        -1.279545
 H         2.348908        -1.816446         1.165871
 H         2.287159        -1.984630        -0.631129
 H         5.124506        -0.968232         0.235093
 H         5.170141         0.914065         0.209789
 H         2.725742        -1.016359         2.705121
 H         2.996133         0.715501         3.280294
 H         2.474284         1.675758         0.943962
