19
Iteration:  1382
 C        -0.109213         0.150179        -0.011440
 C         1.441650        -0.073009         0.077487
 C         2.277615        -1.424654         0.069989
 C         3.164761        -0.167116         0.113051
 C         4.530517        -0.021215         0.489959
 O         4.459412         0.167406         2.021911
 C         3.097644        -0.118199         2.443363
 C         2.306686         0.543693         1.207004
 O         2.460242         0.448203        -0.985908
 H        -0.570508        -0.236369         1.049205
 H        -0.152512         1.171710        -0.201377
 H        -0.579551        -0.425859        -0.820447
 H         1.936118        -2.266577         0.739472
 H         2.209851        -1.747595        -0.985899
 H         5.144569        -0.948891         0.265754
 H         5.177191         0.820665         0.243702
 H         2.800039        -1.098556         2.512170
 H         2.949368         0.416085         3.381781
 H         2.286160         1.633851         1.119360
