19
Iteration:  3642charge 0 multiplicity 1
 C        -0.050350         0.074773        -0.033790
 C         1.384058        -0.040861         0.209539
 C         2.143033        -1.325456         0.037679
 C         3.188223        -0.149187         0.117913
 C         4.613003        -0.169488         0.540113
 O         4.483418         0.192806         1.943577
 C         3.045006        -0.093951         2.424521
 C         2.347813         0.538407         1.175245
 O         2.445825         0.486072        -0.990042
 H        -0.446767         1.133649         0.033311
 H        -0.469305        -0.340104        -0.947079
 H        -0.706781        -0.574339         0.707305
 H         2.131888        -2.014680         0.832151
 H         2.184154        -1.864896        -0.932096
 H         5.269760        -1.111602         0.457741
 H         5.227689         0.777279         0.269641
 H         2.914301        -1.118946         2.697336
 H         3.073213         0.459148         3.368688
 H         2.333594         1.629309         1.150953
