19
Iteration:  1625
 C        -0.121790         0.137923        -0.200962
 C         1.362730        -0.182262         0.182530
 C         2.232034        -1.431763        -0.013349
 C         3.116213        -0.219866         0.149301
 C         4.579319        -0.052099         0.563402
 O         4.568421         0.136383         1.948235
 C         3.161272         0.054622         2.442662
 C         2.261567         0.490027         1.306288
 O         2.412355         0.511638        -0.885786
 H        -0.860452        -0.561689         0.178286
 H        -0.305018         1.149772         0.124748
 H        -0.238800         0.404029        -1.251159
 H         2.214919        -2.166141         0.835134
 H         2.165396        -1.921798        -1.018709
 H         5.109532        -1.006673         0.403088
 H         4.995024         0.773057        -0.082858
 H         3.092918        -0.994655         2.922375
 H         3.115348         0.696239         3.350942
 H         2.351499         1.541186         0.939960
