19
Iteration:  1442
 C        -0.118213        -0.044829        -0.064225
 C         1.406895        -0.091393         0.053244
 C         2.326724        -1.313659         0.086780
 C         3.174308        -0.081012         0.108819
 C         4.630125        -0.118087         0.592363
 O         4.522202        -0.225537         1.982629
 C         3.040051         0.209773         2.448634
 C         2.323215         0.708007         1.177983
 O         2.316789         0.499002        -0.968261
 H        -0.461234        -0.797943         0.551417
 H        -0.672141         0.881893         0.361221
 H        -0.460347        -0.205455        -1.119312
 H         2.278850        -2.019508         0.906636
 H         2.421060        -1.602110        -0.955579
 H         5.101945        -0.927732         0.087243
 H         5.039666         0.899382         0.409813
 H         2.677205        -0.653265         2.988130
 H         3.360941         0.861130         3.244293
 H         2.319996         1.795419         1.004257
