19
Iteration:  1181
 C        -0.143401         0.039381        -0.145939
 C         1.301840        -0.073022         0.199633
 C         2.292665        -1.370352         0.063308
 C         3.249419        -0.175612         0.086963
 C         4.692969         0.094929         0.586003
 O         4.490736        -0.253651         1.985959
 C         3.104633         0.090913         2.476182
 C         2.359895         0.597143         1.150574
 O         2.249759         0.538113        -0.943107
 H        -0.790672         0.008976         0.624993
 H        -0.162055         0.965371        -0.752726
 H        -0.220543        -0.760428        -0.852382
 H         2.307635        -1.922548         0.993458
 H         2.254380        -1.897883        -0.887132
 H         5.500056        -0.555080         0.271954
 H         4.970336         1.132018         0.372273
 H         2.707702        -0.682585         2.972637
 H         3.364007         0.869826         3.185546
 H         2.345871         1.679127         0.940944
