19
Iteration:  3738charge 0 multiplicity 1
 C        -0.017873         0.101025        -0.063191
 C         1.393375        -0.020386         0.100922
 C         2.207294        -1.451615         0.159704
 C         3.203148        -0.106503         0.090248
 C         4.668444         0.145373         0.478850
 O         4.463007        -0.206796         1.946736
 C         3.045834        -0.012993         2.433824
 C         2.292442         0.624229         1.155999
 O         2.385429         0.486089        -0.878998
 H        -0.227365         0.482507        -1.087838
 H        -0.485456        -0.831722        -0.003391
 H        -0.713916         0.602654         0.493698
 H         2.144078        -2.062140         1.075806
 H         2.045628        -2.028563        -0.849123
 H         5.340213        -0.547207         0.017013
 H         4.949013         1.122033         0.392816
 H         2.688593        -1.123694         2.671383
 H         3.221603         0.708355         3.317614
 H         2.379709         1.693975         1.165909
