19
Iteration:  1590
 C        -0.070755         0.117961        -0.105489
 C         1.429862        -0.118924         0.084684
 C         2.263418        -1.383650         0.061042
 C         3.181809        -0.156005         0.096724
 C         4.559951        -0.121846         0.590819
 O         4.469172         0.199987         1.991954
 C         3.118502        -0.086887         2.443029
 C         2.386934         0.516894         1.226951
 O         2.281453         0.538641        -0.981283
 H        -0.789194        -0.263744         0.697075
 H        -0.200605         1.131683         0.018939
 H        -0.429002        -0.310764        -0.999818
 H         2.328682        -1.907792         1.035815
 H         2.258500        -2.042400        -0.826950
 H         5.008570        -1.175794         0.510249
 H         5.243128         0.552608         0.111812
 H         2.929221        -1.242892         2.498964
 H         2.937614         0.489666         3.413049
 H         2.689572         1.590556         1.147222
