19
Iteration:   814
 C        -0.037196         0.206682        -0.180133
 C         1.363785        -0.122470         0.053307
 C         2.200256        -1.465515        -0.040316
 C         3.131517        -0.249856         0.127380
 C         4.553450        -0.019737         0.572146
 O         4.544748         0.314743         1.966021
 C         3.169936        -0.144777         2.473618
 C         2.292239         0.414496         1.308323
 O         2.346687         0.511840        -0.881165
 H        -0.487699        -0.195711         0.844676
 H        -0.125820         1.202115        -0.079040
 H        -0.539063        -0.191734        -1.036874
 H         2.082249        -2.139966         0.834626
 H         2.338099        -1.833652        -1.099177
 H         5.040223        -0.925078         0.526154
 H         4.979786         0.842233         0.079419
 H         3.095178        -1.312935         2.505699
 H         3.323673         0.280166         3.516150
 H         2.367104         1.471687         1.331394
