19
Iteration:   374charge 0 multiplicity 1
 C        -0.077772        -0.023060        -0.079082
 C         1.400399        -0.095538         0.145950
 C         2.205578        -1.372615         0.106207
 C         3.189180        -0.106029         0.073844
 C         4.587477         0.027842         0.592778
 O         4.485421        -0.109228         2.024370
 C         3.125154         0.022945         2.379327
 C         2.426492         0.619668         1.189648
 O         2.299839         0.552239        -0.998056
 H        -0.621294        -0.501727         0.631660
 H        -0.415479         1.074886        -0.271981
 H        -0.312758        -0.564939        -1.066176
 H         2.165434        -1.966101         0.996340
 H         2.335821        -2.075505        -0.658819
 H         5.137460        -0.809831         0.271019
 H         4.916223         1.058727         0.376688
 H         2.776783        -0.892069         2.773384
 H         3.168596         0.826894         3.206996
 H         2.433368         1.720828         0.968922
