19
Iteration:   173
 C        -0.030638         0.067546        -0.035066
 C         1.456586        -0.198879         0.138402
 C         2.341259        -1.375107         0.253786
 C         3.166312         0.025470         0.118223
 C         4.605934         0.118583         0.529019
 O         4.415707        -0.326674         1.899431
 C         3.008936         0.090027         2.321155
 C         2.265546         0.660309         1.152378
 O         2.389206         0.473863        -0.990837
 H        -0.615097        -0.541047         0.961731
 H        -0.232266         1.106355         0.050963
 H        -0.452895        -0.131713        -0.996978
 H         2.462645        -2.054646         1.129724
 H         2.343199        -2.014098        -0.612646
 H         5.348121        -0.567448         0.011657
 H         4.973295         1.215195         0.639586
 H         2.640638        -0.745144         2.977539
 H         3.226587         0.846913         3.045367
 H         2.085281         1.702078         1.064793
