19
Iteration:  1154charge 0 multiplicity 1
 C        -0.078141        -0.000666        -0.152521
 C         1.355796        -0.040377         0.061679
 C         2.312900        -1.345823         0.152964
 C         3.155303        -0.016051         0.094391
 C         4.576074        -0.050070         0.544760
 O         4.547631        -0.076648         2.008536
 C         3.078476        -0.059336         2.418210
 C         2.361767         0.655665         1.234595
 O         2.297038         0.526415        -0.955345
 H        -0.577750        -0.255635         0.914475
 H        -0.317407         1.023813        -0.592751
 H        -0.278735        -0.820390        -0.904321
 H         2.163067        -1.853072         1.139661
 H         2.330712        -2.015459        -0.752344
 H         4.880002        -1.064266         0.148488
 H         5.329800         0.690451         0.223222
 H         2.633579        -1.115515         2.770498
 H         3.223795         0.574294         3.312620
 H         2.378133         1.764033         1.192401
