19
Iteration:  1759charge 0 multiplicity 1
 C        -0.011943        -0.032696        -0.024203
 C         1.457538        -0.080995         0.179790
 C         2.299017        -1.293080         0.093849
 C         3.220496        -0.061095         0.045757
 C         4.598439         0.082700         0.545096
 O         4.357652        -0.359746         1.960167
 C         3.088312         0.155128         2.382107
 C         2.222533         0.662617         1.242285
 O         2.374195         0.475804        -1.005431
 H        -0.335428         0.184168         0.906829
 H        -0.343174         0.788672        -0.739563
 H        -0.337282        -1.037146        -0.320936
 H         2.449664        -2.066029         0.861369
 H         2.281069        -1.859838        -0.851004
 H         5.222515        -0.605622         0.067130
 H         5.172628         1.107046         0.453763
 H         2.612164        -0.557119         3.217952
 H         3.303306         1.027335         3.026150
 H         2.193428         1.797322         1.075108
