19
Iteration:  3762charge 0 multiplicity 1
 C        -0.114935         0.022693        -0.076800
 C         1.349071        -0.094779         0.114212
 C         2.348883        -1.276352         0.109705
 C         3.197473        -0.079875         0.073803
 C         4.623518         0.044067         0.603855
 O         4.466211        -0.265937         1.979632
 C         3.123551         0.007693         2.460438
 C         2.341720         0.614180         1.194819
 O         2.300394         0.506914        -1.033848
 H        -0.345220         0.317886        -1.048383
 H        -0.918151        -0.511534         0.327128
 H        -0.466174         1.043027         0.309142
 H         2.359688        -1.789122         1.046779
 H         2.539114        -1.895647        -0.789280
 H         5.290733        -0.630435         0.011752
 H         4.911923         1.057868         0.474983
 H         2.720403        -1.008532         2.815073
 H         3.241784         0.825401         3.202951
 H         2.393974         1.710056         1.305831
