19
Iteration:   670
 C        -0.124063        -0.026122        -0.114066
 C         1.360922        -0.107805         0.091183
 C         2.405057        -1.404327         0.131148
 C         3.192425        -0.042492         0.093689
 C         4.633098         0.003349         0.609007
 O         4.453657        -0.277978         1.961547
 C         3.154947         0.172877         2.399590
 C         2.315886         0.549143         1.181696
 O         2.265707         0.575814        -0.935266
 H        -0.872170        -0.367680         0.688969
 H        -0.375800         1.101289        -0.063490
 H        -0.430620        -0.334070        -1.100491
 H         2.453221        -1.953305         1.085097
 H         2.322264        -1.874822        -0.852136
 H         5.225475        -0.645196        -0.001885
 H         5.001299         1.052974         0.537084
 H         2.659003        -0.457814         3.125620
 H         3.331068         1.142684         3.030503
 H         2.342101         1.660590         0.974995
