19
Iteration:  3098
 C        -0.110481         0.085955        -0.180529
 C         1.307120        -0.043120         0.212333
 C         2.234223        -1.304250         0.155942
 C         3.197550        -0.169990         0.029750
 C         4.577474         0.009611         0.517635
 O         4.570241        -0.101592         1.984423
 C         3.070996        -0.021800         2.492033
 C         2.436547         0.613977         1.216834
 O         2.313078         0.471424        -0.963314
 H        -0.811440         0.369201         0.681475
 H        -0.270543         0.874379        -0.903882
 H        -0.337946        -0.931827        -0.754508
 H         2.282088        -1.957649         1.014358
 H         2.182658        -1.907222        -0.708605
 H         5.252245        -0.813223         0.268458
 H         5.024521         0.957449         0.085742
 H         2.816287        -1.076751         2.644544
 H         3.151124         0.609692         3.377721
 H         2.443579         1.750833         1.184379
