19
Iteration:  2991
 C        -0.073011         0.168505         0.004679
 C         1.389598        -0.071935         0.122599
 C         2.285477        -1.362874         0.118080
 C         3.171931        -0.112630         0.058375
 C         4.571196        -0.077984         0.587800
 O         4.462670        -0.028173         2.019456
 C         3.106699         0.089897         2.404615
 C         2.377137         0.574125         1.152336
 O         2.346717         0.388171        -1.062793
 H        -0.455462        -0.808017         0.342421
 H        -0.197592         0.977655         0.599065
 H        -0.468315         0.374948        -1.036804
 H         2.338027        -1.965062         1.066463
 H         2.110235        -2.056330        -0.720364
 H         5.172247        -1.030427         0.264051
 H         4.927132         0.882587         0.217775
 H         2.620749        -0.906712         2.528021
 H         2.995731         0.466960         3.410570
 H         2.485882         1.657801         1.188024
