19
Iteration:   714
 C        -0.098188        -0.104669        -0.062975
 C         1.398922        -0.122102         0.234152
 C         2.381944        -1.271903         0.125627
 C         3.209732         0.000828         0.076845
 C         4.555822         0.043034         0.638163
 O         4.345814        -0.441398         1.880100
 C         3.102078         0.200601         2.346594
 C         2.402231         0.706679         1.145293
 O         2.335021         0.541703        -0.957425
 H        -0.700268        -0.756180         0.758079
 H        -0.627455         0.888263        -0.094851
 H        -0.282543        -0.613230        -0.983590
 H         2.563902        -1.843001         1.050336
 H         2.411685        -1.667989        -0.923505
 H         5.188467        -0.713905         0.287660
 H         5.108025         1.012496         0.573549
 H         2.683382        -0.467660         3.137671
 H         3.399410         1.149458         2.977322
 H         2.352780         1.803593         0.958120
