19
Iteration:  1025charge 0 multiplicity 1
 C        -0.111547         0.051177        -0.200208
 C         1.324259        -0.059517         0.112937
 C         2.185515        -1.302227         0.082134
 C         3.221302        -0.126231         0.115728
 C         4.647130         0.014671         0.527293
 O         4.544775        -0.029939         2.028872
 C         3.135221        -0.063941         2.446753
 C         2.343558         0.521432         1.235085
 O         2.329740         0.512097        -0.932029
 H        -0.616501        -0.410557         0.592859
 H        -0.432833         1.138043        -0.174350
 H        -0.361896        -0.446593        -1.156701
 H         2.135393        -1.889957         1.125153
 H         2.103921        -1.912535        -0.882052
 H         5.159457        -0.928706         0.241490
 H         5.055227         0.953738         0.075758
 H         3.069182        -1.153866         2.845868
 H         3.080392         0.681211         3.238029
 H         2.298568         1.670006         1.262386
