19
Iteration:   961
 C        -0.083289        -0.019533         0.018203
 C         1.437719        -0.176515         0.153775
 C         2.445007        -1.275823         0.094773
 C         3.169799         0.039344         0.025528
 C         4.583116         0.066575         0.627260
 O         4.371832        -0.437868         1.915082
 C         3.071068         0.118473         2.401927
 C         2.306005         0.674444         1.140948
 O         2.347177         0.548624        -1.007798
 H        -0.435264        -0.017526         1.001706
 H        -0.224866         1.120951        -0.473079
 H        -0.675932        -0.730731        -0.613032
 H         2.688474        -1.819311         1.057390
 H         2.262046        -2.084629        -0.631502
 H         5.333962        -0.641458         0.167597
 H         5.106158         1.068899         0.667133
 H         2.447039        -0.746801         2.955519
 H         3.284952         1.016902         2.997489
 H         1.980318         1.763550         1.347811
