19
Iteration:  1492charge 0 multiplicity 1
 C        -0.044527         0.046466        -0.146321
 C         1.418479        -0.044428         0.137342
 C         2.363810        -1.336104         0.174002
 C         3.119529        -0.067259         0.124929
 C         4.660485         0.154537         0.588102
 O         4.440769        -0.380927         1.969300
 C         3.113460         0.133947         2.354573
 C         2.353895         0.673403         1.190151
 O         2.230490         0.387024        -0.985955
 H        -0.829494        -0.335883         0.675220
 H        -0.429815         1.049158        -0.164199
 H        -0.201530        -0.506285        -1.060868
 H         2.424453        -1.862282         1.184476
 H         2.310539        -1.929122        -0.766541
 H         5.366120        -0.568235         0.090930
 H         4.982160         1.201059         0.659797
 H         2.527999        -0.675006         2.906316
 H         3.326862         0.851392         3.225998
 H         2.383778         1.774389         0.990886
