19
Iteration:   812charge 0 multiplicity 1
 C        -0.042845         0.197903        -0.161803
 C         1.373033        -0.115204         0.047631
 C         2.204041        -1.469674        -0.034905
 C         3.162747        -0.255959         0.123276
 C         4.538677        -0.013067         0.558505
 O         4.529464         0.302580         1.988914
 C         3.177157        -0.146566         2.462317
 C         2.285857         0.408469         1.304817
 O         2.332585         0.512307        -0.890074
 H        -0.412279        -0.181802         0.779994
 H        -0.095807         1.304507        -0.094559
 H        -0.516819        -0.190124        -1.006155
 H         2.108573        -2.086562         0.854086
 H         2.373246        -1.791837        -1.109243
 H         5.067010        -0.976710         0.472272
 H         4.997571         0.828702         0.045597
 H         3.050162        -1.227078         2.576355
 H         3.352207         0.318743         3.500722
 H         2.322238         1.538915         1.354592
