19
Iteration:  3419
 C        -0.149499         0.186883        -0.202073
 C         1.312986        -0.122791         0.098593
 C         2.285045        -1.420025         0.244366
 C         3.182206        -0.109946         0.125894
 C         4.618716        -0.000098         0.536193
 O         4.517498        -0.052788         1.959752
 C         3.152927         0.053179         2.473470
 C         2.350764         0.654720         1.205795
 O         2.325546         0.349596        -0.992932
 H        -0.769513        -0.713576        -0.048129
 H        -0.400945         1.012420         0.615944
 H        -0.437940         0.406931        -1.210927
 H         2.276814        -1.996326         1.211867
 H         2.269278        -2.063377        -0.630285
 H         5.291343        -0.828482         0.237943
 H         5.128922         0.876063         0.055912
 H         2.888974        -0.898625         2.650093
 H         3.186097         0.683071         3.376288
 H         2.465553         1.703450         1.037065
