19
Iteration:  2821charge 0 multiplicity 1
 C        -0.045528         0.054725         0.008710
 C         1.435404        -0.044228         0.172699
 C         2.245594        -1.313837         0.075734
 C         3.147909        -0.103248         0.119708
 C         4.609108        -0.010757         0.508635
 O         4.407297        -0.160773         1.946951
 C         3.047653         0.086751         2.464274
 C         2.320432         0.567990         1.177433
 O         2.412056         0.455073        -1.019473
 H        -0.412599        -0.460186         0.867069
 H        -0.455654         1.104018        -0.152970
 H        -0.277001        -0.424405        -0.920706
 H         2.324443        -1.969091         0.877304
 H         2.246641        -1.830393        -0.877117
 H         5.267460        -0.813605         0.303322
 H         5.286126         0.919522         0.310694
 H         2.846747        -0.850460         2.993017
 H         3.067755         0.971842         3.086652
 H         2.292261         1.628053         0.897296
