19
Iteration:  2549charge 0 multiplicity 1
 C        -0.009890         0.039386         0.073739
 C         1.445944        -0.041420         0.030411
 C         2.282770        -1.365400         0.114752
 C         3.246715        -0.106475         0.079856
 C         4.643332         0.011952         0.596838
 O         4.353665        -0.292543         2.034401
 C         3.033934         0.171787         2.427037
 C         2.422236         0.597750         1.053549
 O         2.257899         0.510683        -1.060345
 H        -0.402886        -0.647587         0.823781
 H        -0.452240         0.935616         0.568924
 H        -0.588772        -0.251487        -0.858926
 H         2.324280        -1.987021         1.052873
 H         2.240716        -2.055257        -0.728099
 H         5.408619        -0.781241         0.270353
 H         5.118565         1.060897         0.424477
 H         2.447952        -0.488479         3.005365
 H         3.113506         1.156101         3.065088
 H         2.646652         1.706341         0.820859
