19
Iteration:  3236charge 0 multiplicity 1
 C        -0.042913         0.055028        -0.169863
 C         1.430205        -0.116645         0.183083
 C         2.284182        -1.352977         0.157367
 C         3.123481        -0.083691         0.099502
 C         4.549665        -0.066352         0.491245
 O         4.526037        -0.182757         1.983434
 C         3.067776         0.153358         2.424880
 C         2.389825         0.685562         1.154792
 O         2.268824         0.442729        -0.881073
 H        -0.660301        -0.700282         0.313779
 H        -0.516867         1.031836         0.096134
 H         0.055297        -0.101756        -1.202961
 H         2.199815        -1.882756         1.190450
 H         2.257112        -1.866482        -0.812055
 H         5.224568        -0.816647        -0.173291
 H         5.056707         0.942978         0.327522
 H         2.764424        -0.787993         2.778233
 H         3.253871         0.789155         3.324878
 H         2.444010         1.772593         0.984521
