19
Iteration:  3170
 C         0.004068         0.074971         0.057352
 C         1.462127        -0.098456         0.128377
 C         2.272258        -1.355389         0.023508
 C         3.268208        -0.083806         0.039797
 C         4.645998        -0.026214         0.646525
 O         4.426602        -0.216728         1.985509
 C         3.037813         0.168030         2.390607
 C         2.329906         0.646268         1.122547
 O         2.219998         0.419360        -0.992575
 H        -0.466279        -0.538985         0.789897
 H        -0.282674         1.153442         0.306328
 H        -0.279223        -0.082814        -0.925114
 H         2.225088        -2.113333         0.907871
 H         2.153272        -1.988561        -0.905205
 H         5.386953        -0.794383         0.132210
 H         5.099496         1.011364         0.545317
 H         2.530875        -0.696745         2.860767
 H         3.107853         1.014744         3.128244
 H         2.357110         1.716937         0.917061
