19
Iteration:  3869charge 0 multiplicity 1
 C         0.015959         0.145502        -0.069774
 C         1.414552        -0.153457         0.232241
 C         2.391606        -1.308342         0.046163
 C         3.218739        -0.037701         0.100031
 C         4.577323         0.067765         0.509758
 O         4.396248        -0.196127         1.975632
 C         2.991411        -0.073627         2.450070
 C         2.355623         0.550130         1.163326
 O         2.279426         0.534878        -0.971775
 H        -0.573538        -0.773944        -0.430713
 H        -0.640620         0.301099         0.779911
 H        -0.044166         1.031634        -0.694598
 H         2.471549        -2.016220         0.929469
 H         2.380161        -1.936613        -0.937499
 H         5.230576        -0.764406         0.150409
 H         5.014485         1.111998         0.163269
 H         2.697465        -1.057949         2.868643
 H         3.046828         0.614827         3.344043
 H         2.445592         1.620834         1.135789
