19
Iteration:  1716charge 0 multiplicity 1
 C        -0.099870        -0.003551         0.032046
 C         1.404493        -0.104867         0.057625
 C         2.383354        -1.355791         0.110473
 C         3.226273        -0.029441         0.051473
 C         4.714046        -0.012081         0.609997
 O         4.433323        -0.266550         2.067107
 C         3.044844         0.134386         2.331642
 C         2.327547         0.628851         1.084244
 O         2.254455         0.535746        -1.002585
 H        -0.460585        -0.237382         0.966932
 H        -0.387082         1.063091        -0.198903
 H        -0.654525        -0.578957        -0.720365
 H         2.292792        -1.952577         1.008023
 H         2.285003        -1.985149        -0.750994
 H         5.383141        -0.771195         0.334763
 H         5.180962         1.007247         0.416152
 H         2.562877        -0.708787         2.809777
 H         3.004163         0.931653         3.051168
 H         2.206740         1.666183         1.268034
