19
Iteration:  4528charge 0 multiplicity 1
 C        -0.095869         0.061657        -0.056570
 C         1.383569        -0.121173         0.098293
 C         2.370300        -1.369399        -0.022161
 C         3.189927        -0.077063         0.098668
 C         4.644430         0.050305         0.516027
 O         4.452648        -0.131567         1.925802
 C         3.015905        -0.145176         2.403308
 C         2.324474         0.503437         1.258961
 O         2.350454         0.720034        -0.783263
 H        -0.460703         0.981647         0.548808
 H        -0.373979         0.441612        -1.064025
 H        -0.608875        -0.834146         0.219069
 H         2.235889        -2.134394         0.767654
 H         2.672975        -1.884527        -1.072695
 H         5.147709        -0.834979         0.122874
 H         5.076720         1.064173         0.179222
 H         2.804969        -1.188223         2.550403
 H         3.096399         0.416822         3.247182
 H         1.993110         1.567466         1.220987
