19
Iteration:   362charge 0 multiplicity 1
 C        -0.042279         0.113999        -0.119464
 C         1.394633        -0.128317         0.138641
 C         2.239106        -1.406281         0.046784
 C         3.188344        -0.166724         0.011837
 C         4.620725         0.055218         0.521081
 O         4.526994        -0.047735         2.055189
 C         3.096484         0.070153         2.503760
 C         2.378429         0.482528         1.175680
 O         2.238495         0.477176        -0.934391
 H        -0.636490        -0.422396         0.536730
 H        -0.338884         1.185924        -0.053289
 H        -0.175893        -0.287825        -1.174170
 H         2.369856        -1.900350         0.974392
 H         1.967456        -1.941190        -0.826374
 H         5.421575        -0.550438         0.254306
 H         5.000353         1.060000         0.203946
 H         2.735426        -0.860973         2.891363
 H         2.924829         0.853474         3.331300
 H         2.404151         1.577578         1.143351
