19
Iteration:  4026
 C        -0.104554         0.123726        -0.036677
 C         1.415432        -0.037547         0.086593
 C         2.257958        -1.361172        -0.018504
 C         3.187573        -0.171893         0.124146
 C         4.569634         0.035242         0.553480
 O         4.497544        -0.037176         2.026085
 C         3.078915        -0.049786         2.466523
 C         2.357676         0.509175         1.183986
 O         2.355210         0.467131        -0.981629
 H        -0.382531         0.220663        -1.063031
 H        -0.611640        -0.752878         0.463406
 H        -0.251964         1.015193         0.539118
 H         2.096078        -2.112343         0.833301
 H         2.182383        -1.792077        -1.045515
 H         5.387436        -0.610526         0.119681
 H         4.940542         1.043471         0.297263
 H         2.789030        -0.924876         2.884798
 H         3.188839         0.688168         3.311636
 H         2.293237         1.607087         1.184770
