19
Iteration:  4284charge 0 multiplicity 1
 C        -0.117411         0.028759        -0.049290
 C         1.389938        -0.109651         0.129386
 C         2.242724        -1.344975        -0.105635
 C         3.181689        -0.063097         0.134128
 C         4.589080        -0.013597         0.520292
 O         4.476997        -0.005844         1.970844
 C         3.042046        -0.209814         2.405504
 C         2.331897         0.462676         1.271210
 O         2.464139         0.747038        -0.830777
 H        -0.404304         1.064036         0.192000
 H        -0.326640        -0.035458        -1.183261
 H        -0.876046        -0.764030         0.445576
 H         2.244757        -2.064196         0.776697
 H         2.423288        -1.837298        -1.044006
 H         5.330344        -0.773117         0.290594
 H         5.147803         0.954947         0.118972
 H         2.782783        -1.299501         2.546926
 H         2.876043         0.151951         3.375221
 H         2.253897         1.588510         1.131936
