19
Iteration:  3811charge 0 multiplicity 1
 C        -0.090338         0.001868        -0.046282
 C         1.428839        -0.059595         0.126805
 C         2.317306        -1.325989         0.000422
 C         3.182834        -0.084474         0.090214
 C         4.606685         0.004853         0.563905
 O         4.409118        -0.314001         1.989996
 C         3.116647         0.083350         2.492088
 C         2.332359         0.587248         1.221934
 O         2.359412         0.642198        -0.999597
 H        -0.458792        -0.957940        -0.573907
 H        -0.414558        -0.093607         1.033212
 H        -0.761856         0.724207        -0.471660
 H         2.394566        -2.015546         0.847975
 H         2.318109        -1.772794        -1.003069
 H         5.324835        -0.714794         0.170907
 H         4.924280         1.104010         0.243626
 H         2.649438        -0.746980         2.861502
 H         3.154150         0.896614         3.177221
 H         2.268818         1.673152         1.030717
