19
Iteration:  4181
 C        -0.113555         0.035286        -0.077364
 C         1.417976        -0.092467         0.071467
 C         2.340494        -1.294784         0.007320
 C         3.248986        -0.061856         0.111850
 C         4.587829         0.112592         0.603840
 O         4.463542        -0.288948         1.998521
 C         3.058320        -0.095703         2.363756
 C         2.342368         0.574438         1.245781
 O         2.298713         0.624633        -0.917747
 H        -0.726433        -0.250076         0.828603
 H        -0.339900         1.070398        -0.350640
 H        -0.574357        -0.569783        -0.832042
 H         2.289074        -1.914777         0.926573
 H         2.344142        -1.953771        -0.942282
 H         5.437221        -0.502849         0.107570
 H         4.850328         1.198252         0.702088
 H         2.721930        -1.038881         2.682652
 H         3.234114         0.657416         3.213597
 H         2.404465         1.636099         1.004827
