19
Iteration:  4089
 C        -0.045264        -0.015126        -0.074536
 C         1.417602        -0.027257         0.079188
 C         2.259149        -1.381050        -0.003091
 C         3.217329        -0.075740         0.144011
 C         4.625799         0.012751         0.583609
 O         4.517427        -0.214872         2.028168
 C         3.082715        -0.032069         2.484579
 C         2.373822         0.619357         1.208082
 O         2.223416         0.617562        -1.000083
 H        -0.433997        -0.872988        -0.533097
 H        -0.585538         0.299399         0.783510
 H        -0.362994         0.756694        -0.861242
 H         2.091902        -2.018925         0.899656
 H         2.299283        -1.778162        -0.992190
 H         5.251901        -0.698916         0.039344
 H         4.974878         1.052692         0.381594
 H         2.554670        -1.014283         2.775384
 H         3.152786         0.754748         3.332443
 H         2.456862         1.701406         1.217589
