19
Iteration:  4634
 C        -0.161694         0.124796        -0.060462
 C         1.402107        -0.133619         0.102827
 C         2.345653        -1.317239        -0.152856
 C         3.178439        -0.040797         0.164589
 C         4.737748         0.001362         0.562959
 O         4.498808        -0.065588         2.045659
 C         3.069247        -0.218068         2.343413
 C         2.326087         0.470950         1.230901
 O         2.260143         0.675265        -0.802965
 H        -0.402912         0.911085        -0.812929
 H        -0.446985        -0.888786        -0.425793
 H        -0.706947         0.376079         0.832313
 H         2.283045        -2.140101         0.527329
 H         2.497554        -1.438139        -1.252015
 H         5.369815        -0.726087        -0.013275
 H         5.052739         1.012719         0.380178
 H         2.794311        -1.337905         2.395430
 H         2.829641         0.111042         3.410093
 H         2.242024         1.560047         1.341401
