19
Iteration:  2312
 C        -0.097559         0.110281        -0.153923
 C         1.372033        -0.103634         0.193351
 C         2.259432        -1.370959         0.215208
 C         3.179497        -0.130466         0.028378
 C         4.589283         0.103226         0.566131
 O         4.495190        -0.242073         1.981138
 C         3.092490         0.206881         2.418771
 C         2.335613         0.605018         1.196272
 O         2.352465         0.346634        -1.035773
 H        -0.715665        -0.652120         0.363564
 H        -0.482232         1.119161         0.334868
 H        -0.204078        -0.016849        -1.263891
 H         2.384255        -1.942399         1.168795
 H         2.124736        -2.002168        -0.664156
 H         5.336784        -0.574465         0.240231
 H         5.163428         1.076181         0.485832
 H         2.826573        -0.638535         3.056002
 H         3.256209         1.049660         3.022127
 H         2.401798         1.688577         1.108047
