19
Iteration:  1734
 C        -0.114939        -0.032703         0.024326
 C         1.404273        -0.118309         0.107677
 C         2.311445        -1.323675         0.028526
 C         3.260769        -0.113210         0.065814
 C         4.631408         0.068174         0.651385
 O         4.363785        -0.331993         1.997838
 C         3.052037         0.213731         2.440110
 C         2.455286         0.614313         1.090930
 O         2.270852         0.554713        -1.003114
 H        -0.497355         0.037040         1.094172
 H        -0.328843         0.933202        -0.474357
 H        -0.435169        -0.972846        -0.471935
 H         2.424261        -2.040151         0.897606
 H         2.355033        -1.956439        -0.906018
 H         5.420890        -0.562896         0.186220
 H         5.017221         1.129576         0.508428
 H         2.519842        -0.691672         3.008830
 H         3.222059         1.011761         3.195339
 H         2.563909         1.678793         0.690034
