19
Iteration:   630charge 0 multiplicity 1
 C        -0.000023         0.097174        -0.042930
 C         1.453211        -0.029374         0.101813
 C         2.184264        -1.400729         0.136212
 C         3.186439        -0.153927         0.097822
 C         4.639490         0.029374         0.505414
 O         4.445536         0.054062         2.014533
 C         3.066276        -0.094007         2.362607
 C         2.299482         0.576784         1.212810
 O         2.336384         0.472359        -0.995787
 H        -0.329256        -0.477261         0.969754
 H        -0.358221         1.049787         0.000459
 H        -0.286723        -0.521476        -0.882278
 H         2.142369        -2.090056         0.974824
 H         2.274904        -1.972954        -0.805222
 H         5.298328        -0.854391         0.268847
 H         4.916142         1.143277         0.321997
 H         2.806264        -1.212385         2.569483
 H         3.030141         0.457486         3.223668
 H         2.469358         1.596110         1.122792
