19
Iteration:  3290
 C        -0.049874         0.134716        -0.052007
 C         1.437175        -0.118063         0.119123
 C         2.229371        -1.424189         0.105320
 C         3.155312        -0.214429         0.131936
 C         4.578270         0.018306         0.520783
 O         4.482736        -0.011255         1.978169
 C         3.087735         0.045159         2.440137
 C         2.341885         0.606590         1.151289
 O         2.348566         0.447091        -0.956847
 H        -0.339022         0.143610         1.015830
 H        -0.206826         1.164568        -0.553764
 H        -0.598362        -0.531445        -0.679048
 H         2.009584        -2.282297         0.766884
 H         2.347715        -1.780273        -0.898181
 H         5.305125        -0.822389         0.168233
 H         4.826785         1.042671         0.299280
 H         2.780032        -0.922054         2.682343
 H         3.150947         0.604035         3.404703
 H         2.490526         1.668009         1.006739
