19
Iteration:  3909
 C        -0.083053         0.114319        -0.066782
 C         1.362827        -0.049483         0.012977
 C         2.237861        -1.348357         0.008422
 C         3.159318        -0.185811         0.178003
 C         4.588653         0.036123         0.511028
 O         4.528658        -0.089665         2.003301
 C         3.093308         0.015126         2.503036
 C         2.379112         0.459638         1.211737
 O         2.365162         0.544844        -0.924395
 H        -0.510790        -0.388990        -1.000864
 H        -0.561720        -0.493053         0.783396
 H        -0.412083         1.123134        -0.097546
 H         2.084217        -2.059766         0.765619
 H         2.400708        -1.807474        -0.982255
 H         5.306413        -0.620756         0.081376
 H         4.973936         1.002171         0.270195
 H         2.706321        -0.998087         2.851456
 H         2.970275         0.750033         3.264279
 H         2.315511         1.548039         1.056344
