19
Iteration:  1819
 C        -0.003289         0.052642        -0.137417
 C         1.406036        -0.125461         0.204584
 C         2.139973        -1.417398         0.083196
 C         3.204867        -0.115631         0.069040
 C         4.626826         0.039385         0.545886
 O         4.507825        -0.122513         2.026993
 C         3.105951         0.071943         2.448528
 C         2.364559         0.666826         1.201758
 O         2.287458         0.468503        -0.980281
 H        -0.678502        -0.323987         0.746198
 H        -0.281381         1.068260        -0.405722
 H        -0.211263        -0.662220        -0.949332
 H         2.116601        -2.083100         0.943154
 H         2.193999        -1.760984        -0.949816
 H         5.209695        -0.826455        -0.014882
 H         4.833137         1.044806         0.153661
 H         2.685849        -0.789002         2.775549
 H         3.253799         0.843734         3.216440
 H         2.441177         1.719366         1.306747
