19
Iteration:  2179
 C        -0.088056         0.145164         0.029994
 C         1.368673        -0.137462         0.123158
 C         2.252895        -1.409477         0.004542
 C         3.231791        -0.180702         0.096416
 C         4.664832        -0.166245         0.573072
 O         4.427496         0.219380         1.993817
 C         3.051929         0.047634         2.376556
 C         2.316082         0.509567         1.179000
 O         2.391148         0.473442        -0.978038
 H        -0.708312        -0.200819         0.895370
 H        -0.128941         1.326677        -0.031786
 H        -0.604725        -0.544438        -0.785107
 H         2.368987        -2.138092         0.847833
 H         2.051844        -2.023379        -0.954559
 H         5.080125        -1.161385         0.506974
 H         5.413557         0.655585         0.170873
 H         2.890412        -1.018763         2.689309
 H         2.906009         0.551136         3.314374
 H         2.480750         1.613892         1.051004
