19
Iteration:  2575
 C        -0.089990         0.098081         0.031383
 C         1.394502        -0.103555         0.210316
 C         2.296513        -1.436867         0.146569
 C         3.191278        -0.032846         0.086613
 C         4.640815         0.076843         0.568318
 O         4.385124        -0.324558         1.908493
 C         3.072628         0.151878         2.388337
 C         2.250736         0.691907         1.159809
 O         2.484959         0.432757        -1.054484
 H        -0.763504        -0.168515         0.820976
 H        -0.448066         1.127678        -0.050135
 H        -0.315363        -0.476150        -0.790959
 H         2.342388        -2.164843         0.985238
 H         2.343551        -1.996624        -0.847826
 H         5.355934        -0.688457         0.129657
 H         4.932675         1.102473         0.508786
 H         2.471674        -0.639236         2.993014
 H         3.209316         0.921012         3.083016
 H         2.301031         1.732931         0.954574
