19
Iteration:   864charge 0 multiplicity 1
 C        -0.048226         0.068919        -0.144853
 C         1.440575        -0.113962         0.064832
 C         2.191971        -1.405760        -0.027643
 C         3.179698        -0.118485         0.191993
 C         4.556270        -0.137552         0.548830
 O         4.528347         0.222213         1.993219
 C         3.159613        -0.080649         2.446190
 C         2.371294         0.455268         1.256716
 O         2.246967         0.581012        -0.886615
 H        -0.699923        -0.570976         0.334710
 H        -0.353672         1.257172         0.075286
 H        -0.069946        -0.142375        -1.255313
 H         2.242774        -2.056345         0.847030
 H         2.186690        -1.965269        -0.977122
 H         4.930992        -1.225316         0.380608
 H         4.985497         0.743019         0.057894
 H         3.026726        -1.142680         2.601248
 H         3.131825         0.482580         3.379609
 H         2.424397         1.604732         1.374805
