19
Iteration:  3035charge 0 multiplicity 1
 C        -0.149851         0.168759         0.003967
 C         1.382710        -0.138870         0.137239
 C         2.201401        -1.407539         0.049714
 C         3.175147        -0.191245         0.064320
 C         4.635609        -0.054242         0.573484
 O         4.513226         0.012152         2.023328
 C         3.142112         0.060243         2.412594
 C         2.321341         0.580008         1.116056
 O         2.397632         0.483837        -0.967076
 H        -0.686314        -0.460041         0.751109
 H        -0.363786         1.174811        -0.039878
 H        -0.573922        -0.164865        -1.006186
 H         2.145326        -2.131622         0.894899
 H         2.325610        -1.974807        -0.894532
 H         5.198142        -1.084619         0.410385
 H         5.165590         0.866597         0.202258
 H         2.837690        -0.922680         2.769579
 H         3.001157         0.732167         3.242404
 H         2.305049         1.663767         1.034051
